42
 energy: -62.486133516527 gnorm: 0.000479212107 xtb: 6.7.1 (edcfbbe)
N           -1.11198824541004       -0.55624211893495        0.52544658780437
H           -0.24106163339320       -0.96660255104528        0.21098475868730
H           -1.27875478978440       -0.88428950317341        1.47312781337743
H           -2.02358120141166        1.13325161349573        0.62250911610651
C           -2.22167011812311       -0.95984549637627       -0.33739129984629
H           -1.89281444423022       -0.82178824109448       -1.37584741676501
C           -2.69059166447498       -2.39988938193518       -0.14353320658449
C           -3.35616302109719        0.02843392169899       -0.10267674825859
H           -2.98403448957812       -2.56002619002134        0.89182580617100
H           -3.55419457545079       -2.58573912961740       -0.77253793924986
H           -1.89638357334880       -3.09798866920466       -0.40047883222528
O           -2.98017989310048        1.20500469595161        0.42699681246480
N           -4.53013056490631       -0.29991856813250       -0.40668332776043
H           -6.35265631547366        0.02505688228649       -2.48613081472326
C           -5.65618322799513        0.59886949058900       -0.23965959019730
H           -5.77096356862448        0.83576614633667        0.82454717008745
C           -5.52242603704043        1.90524367754101       -1.03737037585326
C           -6.85595680731876       -0.21999351723031       -0.66401850625250
H           -4.72471405480841        2.49373208782387       -0.58228994437997
H           -5.20526930253897        1.67648535165722       -2.06138070870364
C           -6.80933993567076        2.73872204031646       -1.07352993135277
O           -7.05471582222314       -0.40483012569916       -1.98240190959683
H           -7.60738326439376        2.15185787037190       -1.54267502689342
C           -7.26582978096678        3.12800692734162        0.33041996334141
C           -6.57557714978746        3.99085559589971       -1.91776013376713
H           -6.46117224013309        3.62604368443584        0.86712301202231
H           -8.11205223335296        3.80854479768219        0.27201977186004
H           -7.57630881275230        2.25342823207662        0.89601584432500
H           -6.26111189124077        3.72859738779324       -2.92595797374670
H           -7.48839037060149        4.57724001813140       -1.98776403052583
H           -5.80323620764889        4.61087821396258       -1.46767722599525
N           -7.55523858448853       -0.77724028742168        0.22242656518324
H           -8.10405594439081       -0.89418244993008        1.94318182698845
C           -8.66077977530473       -1.64755133036968       -0.11291821927723
H           -9.26770565408176       -1.24547158470245       -0.93359489871678
C           -8.17007906453210       -3.04776888880845       -0.49827204723685
C           -9.53775260924294       -1.77098978265850        1.14119728938174
H           -7.53200707339217       -3.44484163199259        0.28854985517839
H           -9.02485116444022       -3.70464902473076       -0.63236566951312
H           -7.60093688458721       -2.99750183942728       -1.42282985242705
O           -8.96690469623205       -1.27454048038547        2.23278388024693
O          -10.62104456453796       -2.28615367894205        1.13752459671169
