42
 energy: -62.486133511412 gnorm: 0.000480009616 xtb: 6.7.1 (edcfbbe)
N           -2.12665094795233       -0.69596443601283       -1.71624845881812
H           -2.14511370480072        0.22115190865998       -2.15111184630685
H           -2.05897257122317       -1.38754013794578       -2.45468577722038
H           -1.38811985730459       -0.42874875769593        0.06766343328295
C           -3.34140215687814       -0.91483085029856       -0.92309478311480
H           -4.26905649107826       -0.66824420854064       -1.45090370295099
C           -3.37950221270944       -2.37983211030357       -0.48585930727099
C           -3.19777049240180       -0.04507900924213        0.32620712163540
H           -2.47080030133345       -2.63467235389254        0.05556947370938
H           -4.23562756702850       -2.54551879743289        0.15880907628408
H           -3.46270409258145       -3.02848539702865       -1.35528541800541
O           -1.93223165560949       -0.01350703364004        0.76776901577063
N           -4.02474961875779        0.63915052380131        0.98030875645674
H           -7.59077793790278        0.63233394250863        1.80759827809411
C           -5.41627565721457        0.91051731963151        0.82659800748230
H           -5.70644988779461        1.33003149548486        1.80219465659170
C           -5.57651901255745        2.01197463265371       -0.25459251339892
C           -6.39782016142929       -0.19517217732815        0.50020679129496
H           -4.80926075765393        2.76451454198081       -0.06271856171178
H           -5.36091311237981        1.54768256180310       -1.21892398745585
C           -6.94948296691397        2.69061459802161       -0.31670925114969
O           -7.59983252865662       -0.10165411346636        1.18039222404502
H           -7.73404465184159        1.92761453169964       -0.36617365041798
C           -7.19505332601592        3.58790739881877        0.89544504246379
C           -7.03936286424515        3.52238449886152       -1.59572878162676
H           -6.45697411945077        4.38627741630905        0.92324312706211
H           -8.18350054843437        4.03773574381334        0.83607662485283
H           -7.13013082786818        3.04037594377468        1.83339150921642
H           -6.93200521136428        2.88934448494311       -2.47321512621512
H           -8.00177428567944        4.02481567317100       -1.65433167716380
H           -6.25536402822543        4.27623540559617       -1.61435300846246
N           -6.14795302980314       -1.09711081696507       -0.32681292219096
H           -8.70520183729621       -0.54301990208406       -0.19767234435367
C           -7.01588097419789       -2.17434942972023       -0.73567299971117
H           -6.38942130468245       -2.82947659538827       -1.35223317352024
C           -7.61834450431565       -2.99408803993684        0.41159534278978
C           -8.14097056852650       -1.66538523331017       -1.65080605617731
H           -8.30068939535856       -2.40231975200118        1.01743757234762
H           -8.15769168629780       -3.84400781761193        0.00080838226947
H           -6.81968110702934       -3.36074489485448        1.05307689311229
O           -8.95965329838551       -0.76175574171437       -1.11434912745026
O           -8.28243644373115       -2.05939176419852       -2.77285373326836
