42
 energy: -62.486133508874 gnorm: 0.000480426540 xtb: 6.7.1 (edcfbbe)
N           -0.96614409651754       -0.49862659911929       -0.68149396100538
H           -0.27768137546684       -1.04052320849170       -1.18980452300279
H           -0.70148975331273       -0.51139272436918        0.29968208915358
H           -1.89411324991713        1.18789146246977       -0.81397523271777
C           -2.30209796260526       -1.07217986377224       -0.84036794074338
H           -2.44872365775501       -1.25654224361615       -1.91257440212585
C           -2.54052807577983       -2.36926538561317       -0.07280788705685
C           -3.30786856137245        0.00682410306102       -0.45551678451353
H           -2.35800874394973       -2.21608191355799        0.98871162989813
H           -3.57274798212469       -2.67431918392143       -0.20182210816927
H           -1.88147408799335       -3.15519656089075       -0.43663750763341
O           -2.83931113600942        1.26320204392957       -0.57142330660585
N           -4.45111088662731       -0.34221375538053       -0.07634984543037
H           -6.46018851879970       -0.72804928816383        2.10023044902283
C           -5.54029776098988        0.55562640301281        0.24916838284276
H           -5.38660045878354        0.93518496623557        1.27050632828900
C           -5.68721037699183        1.73808336211081       -0.72020982210520
C           -6.75240065988869       -0.35261827922882        0.22970983716466
H           -4.82646785671707        2.39311721514569       -0.58359958975006
H           -5.65469346113708        1.33301109461791       -1.73230919084890
C           -6.97090960246214        2.55914902945148       -0.56084999242732
O           -7.08688670034741       -0.94680831276783        1.40019963302870
H           -7.81340085826338        1.95157047705483       -0.90831297708875
C           -7.22547575166817        2.97701333138699        0.88565881850994
C           -6.88272067844273        3.79491764250737       -1.45554821580945
H           -6.34951922824184        3.47513339774346        1.29668808398266
H           -8.06356759614978        3.66873364246434        0.93328661954693
H           -7.46815346749081        2.12103081253953        1.51067072370560
H           -6.69162257008980        3.50629607199428       -2.48608409182799
H           -7.81279327404683        4.35775565279166       -1.42294724637581
H           -6.07582348227211        4.44564800074747       -1.12544162963102
N           -7.34757655493275       -0.59357060307103       -0.85306771328123
H           -9.15257877105277        0.57629655785876       -0.17544636123015
C           -8.42355538891456       -1.56390684095924       -0.90923572000288
H           -8.88230783553600       -1.43826735571884       -1.90223629355017
C           -7.92060008622602       -2.99916111561526       -0.77036147882023
C           -9.53064387838684       -1.28238919592657        0.11377708188593
H           -7.45684919658648       -3.13397086165533        0.20263743883871
H           -8.75955437626655       -3.68371084313705       -0.85359914972503
H           -7.19199901495220       -3.21117562881670       -1.54818784715426
O           -9.77491796277348        0.02174307806833        0.32116971573488
O          -10.17557632550326       -2.13028440862725        0.65704907486592
