42
 energy: -62.486133500146 gnorm: 0.000481761311 xtb: 6.7.1 (edcfbbe)
N           -1.52572653524080       -0.89714601226114       -1.76352308800832
H           -0.89780730840089       -1.64698359315999       -2.02658702480240
H           -0.95966718375014       -0.13723339834710       -1.39589215703211
H           -3.03396538432051        0.07047335066507       -2.46304666088692
C           -2.47650208168158       -1.34314148466881       -0.74631645566550
H           -2.89290275295847       -2.29917554318605       -1.08878748399168
C           -1.87812377543657       -1.52608418491976        0.64615164665797
C           -3.63964485380148       -0.35285021692042       -0.74110427723405
H           -1.44062097999291       -0.59138354544306        0.99114912357605
H           -2.66265211656530       -1.81159791042577        1.33779221133539
H           -1.10796531643153       -2.29516650726471        0.63303333782175
O           -3.77598650363029        0.33496731653468       -1.88209438868045
N           -4.35498098275387       -0.28980701204373        0.28925664163338
H           -7.17836426839915       -0.15189643103977        2.14663709825268
C           -5.53680276669063        0.52037186929587        0.46068527365142
H           -5.50128784739214        0.83506352933356        1.51488076757360
C           -5.69614265225257        1.75682779313343       -0.43658861610774
C           -6.72892934482325       -0.39381003832593        0.26641521958211
H           -4.78048263516433        2.34853709932906       -0.38326468388010
H           -5.81918677931648        1.40549391125815       -1.45995347469204
C           -6.89718109525030        2.62896593402182       -0.05115398344148
O           -7.54609409767382       -0.58260652288978        1.36545085465178
H           -7.77314872450177        1.98491348406861        0.08951745158287
C           -6.64649610482538        3.41256181898237        1.23658765541185
C           -7.20757078001767        3.59782920739248       -1.19036965647732
H           -5.79703180262431        4.08051888372062        1.10929027119002
H           -7.51806012777389        4.01297326712422        1.48789761911683
H           -6.43820774371876        2.75584520143968        2.07854097733690
H           -7.45300547541193        3.05180553498930       -2.09752989461355
H           -8.05274355210138        4.23211548959393       -0.93276380621507
H           -6.34789314444536        4.23351746943945       -1.39151645210728
N           -6.91237606871854       -0.92242087825453       -0.84987536423226
H           -9.11291814906116       -0.53203507278252        0.44649973303207
C           -7.96241124118925       -1.83100966609052       -1.22802913109411
H           -7.68992158938482       -2.18749937582818       -2.22819004420159
C           -8.13051103514282       -3.03637705924749       -0.29285061805259
C           -9.31888617069290       -1.12316141469310       -1.37092640869640
H           -8.47185176925536       -2.73276464293451        0.69437624809480
H           -8.85353836571284       -3.72701148022892       -0.71979809981426
H           -7.17439282116231       -3.54400540611334       -0.18629964358944
O           -9.74596529185313       -0.46549465318448       -0.29286886733177
O           -9.96824405333153       -1.17414486711401       -2.37589668402799
