42
 energy: -62.486133572050 gnorm: 0.000392814538 xtb: 6.7.1 (edcfbbe)
N           -1.40664126607462       -0.91279985559304       -0.00500102930479
H           -0.82639501262637       -1.72967686974484       -0.15100355060386
H           -1.03204094027250       -0.41071194337207        0.79558033380154
H           -2.15063644553023        0.50701649907985       -0.98341688987544
C           -2.79470316718951       -1.29697227330955        0.25737931033591
H           -3.06006663424433       -2.08392353432868       -0.45869029353437
C           -3.05095226964391       -1.80363877201577        1.67403985651397
C           -3.67736939118678       -0.09413080067751       -0.08014905679675
H           -2.76595386459079       -1.04441186572046        2.40017716906128
H           -4.10612569899242       -2.01933170437514        1.79681164970756
H           -2.47604005711496       -2.70782424836649        1.86280434948938
O           -3.06793074475028        0.82945757193919       -0.84970817630681
N           -4.84870957575488       -0.09328562716087        0.35971917460046
H           -8.24850494249268        1.63554865279704        0.31074924056407
C           -5.90218276559257        0.86658142662348        0.16439069685484
H           -5.94798033671953        1.48025185035762        1.07594696766137
C           -5.73117680868449        1.77463907937323       -1.07475671174501
C           -7.17782357746411        0.04705769002815        0.09290564241792
H           -4.75396794100380        2.25064377242728       -0.99146776821566
H           -5.70352121153005        1.12231897006868       -1.95104984445714
C           -6.77161358524473        2.87699122070105       -1.30833531354753
O           -8.36686500573061        0.68847375551088        0.17061607130638
H           -7.75687823881852        2.43261318397515       -1.48825441120529
C           -6.85189655052864        3.85595600718506       -0.13603043181524
C           -6.38953235374225        3.64295028788600       -2.57629348023249
H           -5.88059415035549        4.31833829008011        0.02758029504198
H           -7.57055011122050        4.64368534812993       -0.35304454736419
H           -7.15365339839544        3.37743182721121        0.79489174268391
H           -6.34376245308255        2.97234947820836       -3.43085976083307
H           -7.12198223622021        4.41868671614824       -2.78818873172563
H           -5.41568626543949        4.11265017560033       -2.45723406575813
N           -7.08465667042877       -1.20392307843932        0.05276814484124
H           -6.01640517805170       -2.57255309235312        0.33819303739212
C           -8.20608218195281       -2.10494141403126        0.05325256216810
H           -8.95926553803292       -1.82487591643675        0.80167828435959
C           -8.88169143476749       -2.19062729523472       -1.31872287120488
C           -7.63695647887993       -3.48924848110202        0.41753852888494
H           -8.13925472471214       -2.41008004252749       -2.08327164853361
H           -9.62265449728237       -2.98491436211785       -1.30352893085799
H           -9.36636001197857       -1.24647653718534       -1.55443761724028
O           -6.31426512673625       -3.50448083321310        0.50910202364950
O           -8.32686241291058       -4.45683887474442        0.58625481568598
