42
 energy: -62.486133515110 gnorm: 0.000479736220 xtb: 6.7.1 (edcfbbe)
N           -1.08242942456785       -1.12688723717635        0.80242377563601
H           -0.08779757244043       -1.15418251184506        0.61654084952959
H           -1.38000023195307       -2.07303693017129        1.02356656352578
H           -2.33589527784610       -0.11949168336705        1.84023033605306
C           -1.82384451281114       -0.62501262746047       -0.35248500477583
H           -1.28585319799242        0.25189132886894       -0.73406046974334
C           -2.00070370037872       -1.63530910144579       -1.48568525511022
C           -3.16618336828972       -0.11884639232810        0.16152352987034
H           -2.52610129730017       -2.51884603998432       -1.12602321396865
H           -2.57710141884571       -1.18556231365435       -2.28762411910735
H           -1.03123199070726       -1.94017547044859       -1.87457236141513
O           -3.20842831845031        0.13641451517415        1.47568600933692
N           -4.11016100929794        0.06981563389565       -0.65198791869244
H           -4.96287705708108       -1.53798043603139       -1.19519484755402
C           -5.40973195244241        0.53215753596676       -0.20325216632976
H           -5.40596134710860        0.80717491648985        0.85825248522548
C           -5.74700068881095        1.76406192087252       -1.06386294701966
C           -6.38899679692976       -0.61018471885611       -0.39886349405441
H           -4.96274786035564        2.50144549028565       -0.87387631762434
H           -5.66853921717995        1.46402678446542       -2.11117142198075
C           -7.11157955312056        2.41270811987582       -0.82580005677479
O           -5.88456229360398       -1.73390856144764       -0.93732038310725
H           -7.88842299568023        1.69919032979209       -1.10998609763655
C           -7.31121670825394        2.80541674921763        0.63543411283614
C           -7.24286441662555        3.64401101433497       -1.72151390193549
H           -6.52007494738708        3.47915525615689        0.95907652164835
H           -8.26478275607182        3.31282011295763        0.75921580637631
H           -7.30551701062646        1.92893732855086        1.27736064319190
H           -7.10597055725873        3.37791835090202       -2.76700278134776
H           -8.22851241304814        4.08812048877076       -1.60827172099073
H           -6.49724146020957        4.39115468517247       -1.45661534173887
N           -7.61101753541628       -0.45257772988779       -0.13171976375911
H           -9.04622924557519        0.58521591043460        0.39287313932163
C           -8.56721008419472       -1.51559592637084       -0.35256666845895
H           -8.43743927578084       -1.97946830944272       -1.33875567495192
C           -8.46852909620895       -2.60614690879197        0.72083104489161
C           -9.96933021996803       -0.89750709792854       -0.27254155530132
H           -8.55588540789562       -2.16218481137464        1.71072861938534
H           -9.27232228121753       -3.32319386992539        0.57956396281993
H           -7.51138455670459       -3.11545360221120        0.64301464974845
O           -9.98336489071089        0.32916087917278        0.23521733673680
O          -10.96114731369737       -1.48127090812345       -0.61185086806519
