42
 energy: -62.486133518244 gnorm: 0.000479305108 xtb: 6.7.1 (edcfbbe)
N           -1.43130038929558       -0.58260202684267        0.76159072285042
H           -0.59275493181120       -1.10338492773156        0.53485952076989
H           -1.62798126199435       -0.73708245447904        1.74695411141100
H           -2.20601636324684        1.15820827964855        0.54822758553640
C           -2.56400540869014       -1.04199898881539       -0.04246341790688
H           -2.21996654344641       -1.10610202799388       -1.08293201611260
C           -3.14577446869194       -2.38831411443387        0.38113773120281
C           -3.62201046945974        0.05327924325503        0.00228083640080
H           -3.44958158914237       -2.35278325387809        1.42513220431432
H           -4.02281372169653       -2.60303408467033       -0.21906724173942
H           -2.41115618149276       -3.18037674547337        0.25095841655906
O           -3.15278208681182        1.27409285613114        0.32660198592783
N           -4.81318598307649       -0.24352025559672       -0.25504156429717
H           -7.52108546783176        0.87279646482693       -2.15741786126341
C           -5.90011163654144        0.71376474310573       -0.25645618376394
H           -6.01751001458649        1.10779495026624        0.76261684616431
C           -5.68315832106746        1.89044068829473       -1.21786010344131
C           -7.13495033272380       -0.12219776941086       -0.56107752426217
H           -4.68468600799063        2.28760111768734       -1.03248124714799
H           -5.68382887808345        1.52100506589191       -2.24976964322245
C           -6.70010071834514        3.02980071588133       -1.03741521736477
O           -7.87649826544175        0.12736966975627       -1.65706167304653
H           -7.70057791067305        2.61520078613687       -0.86353033816226
C           -6.33673575101432        3.88979950004354        0.17131190803324
C           -6.74530376323435        3.89610136582343       -2.29601865618547
H           -5.36429214518673        4.35493879854513        0.02563634107323
H           -7.07632815343835        4.67422426389174        0.31427453415203
H           -6.29692158127374        3.29232075477920        1.07848832639568
H           -7.05771736701007        3.31960054408774       -3.16538546673098
H           -7.44598402555238        4.71740653310327       -2.16633624590850
H           -5.76206295797808        4.31488993926536       -2.49945980955873
N           -7.39110458115989       -1.06157460054970        0.23555882973366
H           -6.95049920725814       -1.96534717980873        1.70269442613467
C           -8.48370378446809       -1.98645491312221        0.05633847548697
H           -9.43930928501731       -1.46588186270300       -0.08407531578939
C           -8.25826471847773       -2.93664945718843       -1.12542618713148
C           -8.55663008869858       -2.82864007533322        1.34128137107855
H           -7.28833086398540       -3.42025361401704       -1.02851778615911
H           -9.03704846158357       -3.69415726604304       -1.12967075932115
H           -8.28603417505295       -2.38243775170438       -2.05963173496593
O           -7.50835659536743       -2.65897887097628        2.13627517141667
O           -9.45972679935623       -3.58088987766673        1.58381179825109
