42
 energy: -62.486133509989 gnorm: 0.000480504475 xtb: 6.7.1 (edcfbbe)
N           -1.53929957256856       -0.98840848826950       -1.58734362967098
H           -0.91164594729862       -1.75588067448991       -1.79318788220101
H           -0.97317264996631       -0.20391280804727       -1.27542746616153
H           -3.00226089932104       -0.03336168563231       -2.35366230275345
C           -2.49479857727857       -1.35658330992985       -0.54446740404167
H           -2.89172784917844       -2.34736057313501       -0.80024252816602
C           -1.90587325692404       -1.39826496634869        0.86398671269190
C           -3.66954765478252       -0.38247338594721       -0.63808995376149
H           -1.49688934131633       -0.42467402102749        1.12681528273078
H           -2.68544884072977       -1.64491420053787        1.57611643376822
H           -1.11443662868120       -2.14302515440986        0.92355987685396
O           -3.76900324453956        0.24863509982018       -1.81308357935501
N           -4.43371627505022       -0.28338946481214        0.35514606972668
H           -6.31179148746283       -1.16737098001175        1.93205718629847
C           -5.62284210996033        0.54610174667031        0.42970402730676
H           -5.66278417912667        0.88148575406787        1.47734413680766
C           -5.71619019401971        1.75705584778057       -0.49775037448671
C           -6.75940403290070       -0.42795548543886        0.20346563420362
H           -4.77133474962331        2.30212825777191       -0.46177000558977
H           -5.86859746879319        1.39132880397463       -1.51127839784702
C           -6.86747736316105        2.69599502457096       -0.11862656254138
O           -7.00957403027004       -1.26531451558350        1.27209806052047
H           -7.75285838205019        2.08880903744311        0.09730289224962
C           -6.53101729721403        3.53918622629381        1.11010595453838
C           -7.19268412273084        3.60829723069281       -1.29906281799842
H           -5.66615215162074        4.16883973683580        0.90973955666425
H           -7.36938267920943        4.18270764650464        1.36698217320724
H           -6.30854691586158        2.91850303183825        1.97501376396558
H           -7.49908977325836        3.01830183172202       -2.15856488827140
H           -8.00104743670964        4.28984430634364       -1.04433621953469
H           -6.32003846437033        4.19673200810061       -1.57517580803376
N           -7.32646014164258       -0.49482900208731       -0.90674356716982
H           -8.82002073151648       -1.26874478769234        1.05343631754834
C           -8.34661931527886       -1.42638636761341       -1.31136485076683
H           -8.48031189937409       -1.25896011533817       -2.38641487584619
C           -7.99164456902183       -2.90069538816598       -1.07242280807378
C           -9.70304304044068       -1.13582070179680       -0.65112333237823
H           -7.91771695402222       -3.12661083779841       -0.01084899256663
H           -8.75642947170414       -3.53303165309020       -1.51648546048424
H           -7.03437861147878       -3.12005359095734       -1.54033849356321
O           -9.70612316728148       -1.10418472893643        0.68130520333329
O          -10.70480978323624       -0.97377037984107       -1.28743178870788
