42
 energy: -62.486133515411 gnorm: 0.000479062055 xtb: 6.7.1 (edcfbbe)
N           -1.84534391381177       -1.30549569575585       -0.56806201581599
H           -1.24859112340562       -2.11724984243433       -0.46469359504009
H           -1.29869905518901       -0.48949227667294       -0.30539045644374
H           -3.07666397409062       -0.55414180781617       -1.83892502182442
C           -3.02354646934512       -1.41066249806980        0.29392722349999
H           -3.43642246558466       -2.41905856417796        0.16051175644368
C           -2.75658713188078       -1.17235873010189        1.77752981592242
C           -4.07041665589918       -0.44741407277547       -0.25008444561718
H           -2.31352426643216       -0.18997438779099        1.92712469651293
H           -3.69561567171679       -1.21039488285290        2.31775302180020
H           -2.08129298284867       -1.92986844158977        2.16989867355363
O           -3.91241862873635       -0.13333281585332       -1.55079162368161
N           -4.99636771093110       -0.06707144741311        0.50662844259926
H           -7.55060177784317        1.15060134390420       -1.89261301531740
C           -6.07781633659277        0.79784034931316        0.08403033323352
H           -6.47740925159369        1.20530641239069        1.02383233051956
C           -5.67718011907585        1.96566750973060       -0.83024472007156
C           -7.16534525402020       -0.10070510763785       -0.48605624670416
H           -4.67601309222729        2.28531949297991       -0.53328788273881
H           -5.59283717378452        1.61981955676752       -1.86446993050705
C           -6.62512279998560        3.17307547352764       -0.72796348418325
O           -7.86384418229325        0.29695289792570       -1.56717977999054
H           -7.66192237233524        2.82727799841988       -0.62799525647954
C           -6.29683729361207        4.01255756276255        0.50531150012574
C           -6.52012458269389        4.03444787353533       -1.98649959901323
H           -5.29987743819594        4.43914584926908        0.41658785594665
H           -7.00961985332054        4.82709030141266        0.61177423844286
H           -6.33164159546427        3.40915259383393        1.40912066133764
H           -6.80888806376548        3.47710727745712       -2.87620135237658
H           -7.16818030885108        4.90412432125501       -1.90697526812064
H           -5.49779384434425        4.38160833998150       -2.11969995279503
N           -7.37198974327141       -1.19492718596815        0.09847324983657
H           -6.97175905815752       -2.27110852160115        1.46576219309290
C           -8.35485088141393       -2.16024548392772       -0.32729673732699
H           -9.35314280085825       -1.70998530525541       -0.40309416171357
C           -8.00607645304605       -2.81479545303727       -1.66825185725652
C           -8.39039408223506       -3.25229818065782        0.75677107761346
H           -6.99183007258393       -3.20813548727423       -1.63364802990418
H           -8.69829624370357       -3.63066944482703       -1.85649809547894
H           -8.07690471946494       -2.08597725649421       -2.47123124312195
O           -7.45878663352632       -3.10353372714264        1.68806919679538
O           -9.17561522817567       -4.16022445290481        0.74298294041377
