42
 energy: -62.486133506982 gnorm: 0.000480662362 xtb: 6.7.1 (edcfbbe)
N           -1.36572180571555       -0.95165470077736       -0.93583537145505
H           -0.69198796831656       -1.70556888682513       -0.99417703543680
H           -0.90503040575542       -0.16523458486749       -0.48550386104981
H           -2.64114394492698       -0.08093153622311       -2.05391209144276
C           -2.53456954414018       -1.35325026814459       -0.15236569071285
H           -2.84644196221167       -2.34083486909706       -0.51672627097426
C           -2.30604716103698       -1.42182388675251        1.35435707014273
C           -3.65985943264800       -0.38893721878523       -0.50430869598227
H           -1.95528242821936       -0.46052613849842        1.72413272661357
H           -3.24342089993414       -1.65507772113120        1.84710258758807
H           -1.56893212474955       -2.18532003436159        1.59426177211850
O           -3.52783193495071        0.17922822786084       -1.72781357756367
N           -4.61656237753789       -0.24671982791803        0.29313718557513
H           -5.90129782146320        0.11333368345522       -2.26579995879574
C           -5.75074410369543        0.63170965041345        0.09130414480186
H           -6.12275392115414        0.81531414601845        1.10549530050529
C           -5.49581447241529        1.97502017005288       -0.60079958364457
C           -6.79108623287298       -0.21987701569044       -0.60461879396311
H           -4.74990409826130        2.51538489125290       -0.01289758226097
H           -5.06978048942773        1.82679051199669       -1.59555903079972
C           -6.76466828806499        2.82832901056154       -0.72845203437210
O           -6.67662803310769       -0.36472513951755       -1.93951726731388
H           -7.53726219325638        2.23835850825133       -1.23530954591384
C           -7.30571987171247        3.25823222124572        0.63299584253597
C           -6.46024741200713        4.05965283999781       -1.58126153105647
H           -6.53364701440847        3.76904910730273        1.20469485389828
H           -8.14187160852503        3.94108861079485        0.50196879745090
H           -7.65745514134424        2.40435426290286        1.20537442826557
H           -6.10722878718975        3.77270890893490       -2.56967447355367
H           -7.35279718046100        4.66843057983123       -1.70252384429610
H           -5.69318270345771        4.66748448461373       -1.10577380452825
N           -7.63454211546596       -0.84138695132581        0.09219748470234
H           -8.50371804595483       -1.07613169031726        1.66520008755367
C           -8.59321653979280       -1.75205654663746       -0.49235538524683
H           -9.04865539871349       -1.34239517323630       -1.40244802009126
C           -7.95314500478906       -3.10508269656742       -0.82369227325742
C           -9.69297646557878       -1.98368006543861        0.55498911711624
H           -7.45124468796304       -3.50135629897237        0.05675093096920
H           -8.72604597022584       -3.80031350890407       -1.13911267783760
H           -7.22548196537667       -2.98514030752844       -1.62232416568690
O           -9.38176749284465       -1.51596324996826        1.75724449876201
O          -10.72047620843389       -2.55250728951712        0.31049092034796
