42
 energy: -62.486133513034 gnorm: 0.000479701330 xtb: 6.7.1 (edcfbbe)
N           -1.26937496767372       -0.89922179337977       -1.25118153792105
H           -0.54547008517638       -1.60254692604828       -1.33279568092855
H           -0.82051042725099       -0.02885338829997       -0.97798576367793
H           -2.73966092302127       -0.27046158771179       -2.24709612923499
C           -2.26400241422653       -1.28094289472605       -0.24779618080511
H           -2.50891665880230       -2.33768886199924       -0.41482764011912
C           -1.82057931888890       -1.08850734735524        1.19918696365545
C           -3.53061991027713       -0.49139044768898       -0.54917440553511
H           -1.53849031387760       -0.05155764400529        1.36900814627295
H           -2.64538801072258       -1.33045493871975        1.86034561164410
H           -0.97156068874795       -1.72941309354584        1.42709858009093
O           -3.60342627898157       -0.05084238320043       -1.83586280821311
N           -4.39635767413802       -0.34776320152915        0.34322361749117
H           -5.45880953458015       -0.38276280120121       -2.09701728394270
C           -5.63941716483373        0.38060448949193        0.20581866446958
H           -6.02853320067317        0.45599555317717        1.22589662477116
C           -5.48802690040157        1.78955229357037       -0.39108383260976
C           -6.64021878581927       -0.42805344020199       -0.59033840847211
H           -4.74370238331125        2.32720045304698        0.20119836399380
H           -5.10595490226597        1.71564268698301       -1.41182932331043
C           -6.80109155261070        2.58108849192170       -0.41054896329380
O           -6.33481781696983       -0.73190319332412       -1.86159240224587
H           -7.57509314441964        1.96418284443807       -0.88039321148586
C           -7.26552385019429        2.94847158868893        0.99625183399216
C           -6.61730378466045        3.84654628187114       -1.24752164193899
H           -6.49820521819876        3.52330981721721        1.51110900604830
H           -8.16869922128862        3.55151920770671        0.94475488412531
H           -7.48848284930755        2.06091443987645        1.58147587296286
H           -6.33608998557796        3.59919402720919       -2.26911217641590
H           -7.54141075866592        4.41829578407207       -1.27811035355481
H           -5.83907520076541        4.47502430960774       -0.81866608558474
N           -7.71526266831634       -0.77581426189448       -0.03114509440518
H           -8.94276890353589       -0.51904785759931        1.27414521942823
C           -8.72781860695092       -1.52643184548184       -0.73977819566231
H           -8.85289217755377       -1.17435954401930       -1.77193977709386
C           -8.40249510342296       -3.02378295193680       -0.76524813495516
C          -10.05064289439521       -1.32785106857982        0.01464986641715
H           -8.22383372397914       -3.38111446740342        0.24685400899420
H           -9.24073284602339       -3.56587497406943       -1.19382786829598
H           -7.51263837631924       -3.19844434636789       -1.36491681245116
O           -9.90259205907445       -0.72960220482883        1.19046069242402
O          -11.10969998074973       -1.69488056762166       -0.41275313162251
