42
 energy: -62.486133508116 gnorm: 0.000480558582 xtb: 6.7.1 (edcfbbe)
N           -1.84756048505455       -1.41586542326773        1.21788784218142
H           -1.34348852218475       -0.58590231638528        1.51270293196530
H           -1.18084832613024       -2.17424303250266        1.13842399261689
H           -3.62714421285614       -1.08103378271627        1.96530865926869
C           -2.52258096207495       -1.18261122728812       -0.05699250766157
H           -1.91511597200964       -0.63463516523599       -0.79090176848061
C           -2.95711279260266       -2.51756323425528       -0.66337457099998
C           -3.76941384030589       -0.37007630745876        0.24011740150737
H           -3.57450276722783       -3.06643426944927        0.04378860345905
H           -3.53069285839008       -2.33836037096500       -1.56720401335210
H           -2.08724863293542       -3.12195047688445       -0.91183417346889
O           -4.26648783213382       -0.52630146853857        1.47392723752442
N           -4.26572959267933        0.35291777872851       -0.66352637488466
H           -6.22211709450933        0.22095956368250       -2.55562046897450
C           -5.50959753409222        1.06551153700772       -0.41211966363262
H           -5.59063576742944        1.34830614103457        0.64341807201190
C           -5.57185483199287        2.29961879343113       -1.31574388173332
C           -6.59285987909069        0.05120275266983       -0.69397167149066
H           -4.83876755710716        3.01942124862849       -0.94689032744578
H           -5.25384908933245        2.02024083678359       -2.32470709925150
C           -6.95400106352628        2.96179146871775       -1.36948600337849
O           -6.81461754720547       -0.28091268482305       -1.98109656691962
H           -7.68667410082911        2.23493970517675       -1.73852922685627
C           -7.40470333230744        3.43119196484052        0.01172091248639
C           -6.91597696946696        4.14020949827324       -2.34142111186778
H           -6.66305695110994        4.09713459592618        0.44781168138058
H           -8.34569557792924        3.97094563813395       -0.06588056769677
H           -7.55374529660771        2.58733012733364        0.68002533341694
H           -6.61460967434391        3.81610707205733       -3.33535812443323
H           -7.89697118217283        4.60276254579348       -2.41656154797315
H           -6.20862381304661        4.89139876615031       -1.99671280164701
N           -7.15126279919058       -0.51568926909937        0.28043538025408
H           -7.39171002846447       -0.67723281421746        2.06903755097711
C           -8.10691039184788       -1.58693033600441        0.12017951649440
H           -8.88646112573925       -1.33411064057486       -0.60877302087197
C           -7.43128254377231       -2.89553668874877       -0.30651860963827
C           -8.75599276840943       -1.81224836100484        1.49460403576316
H           -6.62662907959449       -3.13642647786718        0.38579639484309
H           -8.16336156835411       -3.69810649605907       -0.29537570068990
H           -7.02015236719416       -2.79308848208986       -1.30753153496087
O           -8.12361953724528       -1.19399593361709        2.48322648891831
O           -9.72252497821802       -2.50476057790543        1.65665441114133
