42
 energy: -62.486133511112 gnorm: 0.000480260133 xtb: 6.7.1 (edcfbbe)
N           -1.21058455922237       -1.13556721054085        0.33303778925394
H           -0.64845630303962       -0.29097659131538        0.32156282563028
H           -0.59774698608354       -1.91924785378101        0.14195998462052
H           -2.59946348857245       -0.71097190351571        1.58414566095132
C           -2.28015448915900       -1.05963754715279       -0.66283431182566
H           -1.98592297091778       -0.55638842720897       -1.59311191083698
C           -2.79191726825930       -2.46120632469635       -0.99702954685176
C           -3.42311694346687       -0.28008485762556       -0.04107230980281
H           -3.08509310962127       -2.97994961745529       -0.08645410984901
H           -3.65376991696217       -2.37881967769467       -1.65245745800089
H           -2.01826929452517       -3.03972104113843       -1.49737332496382
O           -3.43584188948593       -0.27788433691937        1.31248599433846
N           -4.29187981021482        0.24915758227488       -0.77652294280441
H           -5.98626898477312       -0.03451123375326        1.96768500308888
C           -5.40973041370209        0.94814773185000       -0.17448989009686
H           -5.11462655523021        1.41983479370331        0.77471011827104
C           -5.90640536057391        1.99542878900418       -1.17533160580700
C           -6.48093862005255       -0.08561276725049        0.08539585455608
H           -5.08583578228875        2.68167231771799       -1.39077236868442
H           -6.14978915814556        1.45234904980850       -2.08756940992384
C           -7.13315261862162        2.77972478039396       -0.70101302658806
O           -6.68208270096786       -0.41253952509873        1.41446572211858
H           -7.90435062908887        2.06648868135733       -0.39013156093916
C           -6.80669454041346        3.69726623830851        0.47617074767871
C           -7.68703814456623        3.60289412644462       -1.86197027018948
H           -6.01383642935400        4.39194472017613        0.20569495065951
H           -7.68513216323005        4.27362467748566        0.75736587868337
H           -6.48654976500236        3.13250309324611        1.34850984725069
H           -7.96278529508259        2.95433650717684       -2.68915629170286
H           -8.57004188212886        4.15603464808787       -1.55079574692925
H           -6.94145141801221        4.31340321417670       -2.21288471631746
N           -7.05193581432826       -0.64307584891121       -0.87516404209154
H           -8.48104514290097       -0.57932259363586        1.27265108385516
C           -8.02023837751326       -1.70513255929504       -0.81723998835595
H           -8.17440836545892       -2.01202901682027       -1.85817749982784
C           -7.57770379508997       -2.92467629809747        0.00426572046256
C           -9.38622298784959       -1.23370560541349       -0.29415951812762
H           -7.48166716978049       -2.68145927306315        1.06025194500624
H           -8.30859849730730       -3.72131470260330       -0.10967574965301
H           -6.61384392832470       -3.27283042847433       -0.36090155364270
O           -9.37896255231546       -0.63385616449353        0.89580312969714
O          -10.40263713114374       -1.41631532085280       -0.90093798761075
