42
 energy: -62.486133507839 gnorm: 0.000479629679 xtb: 6.7.1 (edcfbbe)
N           -1.87233735729374       -1.56678247541373        1.28120044460279
H           -0.90684007011476       -1.86597193429661        1.22250601275219
H           -2.43372414358849       -2.38466510101813        1.50275602947880
H           -2.97976562672549       -0.22321524065562        2.09343528125279
C           -2.32040412438330       -0.98657943101932        0.01653864086819
H           -1.54818874529699       -0.27742714832312       -0.30939175969930
C           -2.57438415858248       -2.00233257273812       -1.09575617054165
C           -3.57050202578300       -0.17052982472595        0.31658620561198
H           -3.34126046428913       -2.70953604428964       -0.78715291074026
H           -2.92222168719580       -1.48652105088788       -1.98378389124265
H           -1.66181052444957       -2.54735599268058       -1.32938660156832
O           -3.71672354818926        0.19013509032543        1.59987354791285
N           -4.35601991180905        0.12468271865817       -0.62084143350572
H           -6.22173735787108        0.00798916958882       -2.49362733760786
C           -5.56011841578399        0.89594726014382       -0.36525459592203
H           -5.63255958611468        1.19623196766760        0.68579267961768
C           -5.58113085706557        2.12821754688993       -1.27696714752940
C           -6.68048037184519       -0.07651582023137       -0.65279759478495
H           -4.82318949304414        2.82410575084320       -0.91142497518536
H           -5.27833774422572        1.83454323564867       -2.28690678555381
C           -6.94022324663593        2.83634390098068       -1.33033498930215
O           -6.88561837413300       -0.41924459149981       -1.93705522899840
H           -7.69394104905202        2.13581965839859       -1.70768015692531
C           -7.38031737559295        3.31228786067821        0.05199272422183
C           -6.85819289087198        4.01881382328181       -2.29465009546740
H           -6.61367361382376        3.94105963444711        0.49971676627336
H           -8.29636155783084        3.89303876738343       -0.02730732911315
H           -7.57072843030002        2.46985675257202        0.71143756368853
H           -6.56161130028638        3.69116672306238       -3.28887959506009
H           -7.82345079468941        4.51295637749458       -2.37247027975506
H           -6.12932461915852        4.74491255806754       -1.94096025790079
N           -7.28601150174594       -0.60589251861891        0.31617388541828
H           -7.72083124685544       -0.61186177609179        2.07377650872513
C           -8.29649657379189       -1.62325241124013        0.12782076421326
H           -9.01068057052759       -1.34771757710093       -0.65808024982777
C           -7.67753345747896       -2.98147383425878       -0.22096153546965
C           -9.05306399484771       -1.76165601247466        1.45769962415904
H           -6.93002752953435       -3.24820592825955        0.52385570406471
H           -8.45672012835123       -3.73833941592153       -0.23044780007113
H           -7.20448564968191       -2.93404542322985       -1.19844094602563
O           -8.49624816352444       -1.08712241155893        2.45591761674724
O          -10.03891297238200       -2.43389006907628        1.58241474126718
