42
 energy: -62.486123546407 gnorm: 0.000501869847 xtb: 6.7.1 (edcfbbe)
N           -2.13965026943468       -1.26650326990577       -1.74538402173817
H           -2.20010615804689       -0.60660095794177       -2.51420545879713
H           -2.10138557825506       -2.19917892501049       -2.14072801314483
H           -1.28127011714121       -0.26501144592417       -0.39892379909537
C           -3.30501291748065       -1.12930740637700       -0.86526597272319
H           -4.25064288792812       -1.01104655941513       -1.40571285331076
C           -3.38401732003198       -2.34909942587435        0.05457974264948
C           -3.06293704015402        0.10194323259258        0.01185284854219
H           -2.44749371868380       -2.46919617073210        0.59596813476190
H           -4.18819817173412       -2.22228271183142        0.77416323522928
H           -3.57023539551682       -3.25144290720130       -0.52545884470573
O           -1.75999510569338        0.35561792188751        0.19217957265271
N           -3.86635334438286        0.85909913134992        0.61045185842688
H           -6.91972447910364        0.00006806659596        2.14291699767112
C           -5.28322713486826        0.98454130505241        0.65485412803906
H           -5.48551662296798        1.29572876026907        1.69178977645220
C           -5.66220147771003        2.15407348025583       -0.28611541093253
C           -6.21809054097831       -0.16742960541204        0.32988002759003
H           -4.94888155757486        2.96022058979702       -0.11055756399394
H           -5.52876080370609        1.79223672451698       -1.30675080766483
C           -7.09182512777093        2.67790388192724       -0.11246214254681
O           -7.09397243448095       -0.51203413346839        1.34285461653082
H           -7.79052781126413        1.83369480457396       -0.12538625081619
C           -7.26161125388169        3.44369050660891        1.19827952730489
C           -7.44005020002590        3.58771081078704       -1.28918691140773
H           -6.58812471013559        4.29737831955074        1.22263024598753
H           -8.28198343284440        3.80858580319510        1.29016431841320
H           -7.04970091417309        2.82084243366364        2.06439053286753
H           -7.38950662228480        3.03749905046893       -2.22540264267395
H           -8.44743523615679        3.98180860604527       -1.17947240173712
H           -6.74575628089846        4.42355139179310       -1.34008361241985
N           -6.21362415306470       -0.71961635466573       -0.79295990407378
H           -8.58544770704524       -0.68036409656707        0.28686659178399
C           -7.08845471399486       -1.76723821875858       -1.25819427576894
H           -6.67123213346950       -2.08714197699184       -2.22055532546289
C           -7.21589373471135       -2.98812880269624       -0.33844763649179
C           -8.49348558053170       -1.21847086972500       -1.55691991973026
H           -7.65771919541633       -2.72697417065760        0.62028795918830
H           -7.84037141886934       -3.73514217857098       -0.82254030782918
H           -6.23221831491683       -3.41552378818387       -0.15990884935008
O           -9.12635123545043       -0.66194565199802       -0.52481292425478
O           -8.99719823672807       -1.29852002942634       -2.63971677639724
