42
 energy: -62.486133493243 gnorm: 0.000482683908 xtb: 6.7.1 (edcfbbe)
N           -2.36497397922045       -1.22601586717189       -0.44115809098895
H           -2.18376834937986       -0.43467999509717       -1.05005472025119
H           -2.14066013012221       -2.07259773303274       -0.95201929544275
H           -2.20105798023849       -0.55616783574760        1.48078293716866
C           -3.76425967936532       -1.24237937217545       -0.00383034439196
H           -4.47745287993963       -1.17533752502143       -0.83771925151130
C           -3.99907433708135       -2.52799063597086        0.78769148115617
C           -3.90744178562992       -0.02316995321079        0.91250618459948
H           -3.32792719880948       -2.57061774064765        1.64272359412166
H           -5.02128138986705       -2.57265908306556        1.14425558879042
H           -3.80511043042903       -3.39510412560339        0.15797074311774
O           -2.88288446462719        0.07779242594605        1.77146611962368
N           -4.72790503902560        0.92754071005564        0.91896714396101
H           -7.24711842801818        1.05381407506231       -1.90777742896023
C           -5.93092272276785        1.17291496879425        0.18757801350890
H           -6.60614422389291        1.63095320771084        0.92888437006521
C           -5.59850684816660        2.24682619929095       -0.87567526964657
C           -6.71846371005782        0.00175389883168       -0.38118981717903
H           -4.70195793889553        2.76249226111580       -0.52668481182466
H           -5.33063385922226        1.75801812308023       -1.81862811827911
C           -6.70238682516577        3.29591850298665       -1.09525766433221
O           -7.37329911162171        0.16598814513824       -1.54967110019831
H           -7.69151099801893        2.81946065885182       -1.07029257037710
C           -6.66820085330724        4.34347729466850        0.01532285648227
C           -6.52394040646759        3.96922711118371       -2.45599347547494
H           -5.73602712252165        4.90200253756091       -0.02318780263011
H           -7.49362282246604        5.04267482317726       -0.09657342515670
H           -6.74369319681177        3.87633457457814        0.99374402732287
H           -6.60463254641269        3.25145294322240       -3.27110174437756
H           -7.28274122613561        4.73388819246593       -2.60285323288507
H           -5.54672984639692        4.44318710371292       -2.51432934477300
N           -6.80121031221931       -1.06993459464386        0.27827216721930
H           -6.93184796674913       -1.75020075895671        1.98089858198217
C           -7.64946904971112       -2.15791712453427       -0.16084031823495
H           -8.63187366632195       -1.77602120401112       -0.47530443269596
C           -7.06344297908167       -2.96730251355435       -1.31963684067918
C           -7.88446632159032       -3.07308775494415        1.05053604055736
H           -6.06544564598331       -3.31685885189271       -1.06882494076644
H           -7.70174856429477       -3.82740118748475       -1.50061305582405
H           -7.01664751376818       -2.35670065163715       -2.21776059003617
O           -7.38144811426767       -2.60134984362082        2.18735473485548
O           -8.47426085828172       -4.11424895918985        0.97695954125319
