42
 energy: -62.486133519865 gnorm: 0.000478906283 xtb: 6.7.1 (edcfbbe)
N           -1.06716773216642       -1.15299087167632        0.20301642307671
H           -0.17796192488737       -1.31708733070665       -0.25356790686859
H           -1.32542203534293       -2.01190499446440        0.68208806559694
H           -1.96199906330155        0.12193975612108        1.33131337323856
C           -2.09931980290215       -0.80754946818469       -0.77575842021054
H           -1.67485347821057       -0.04622716479887       -1.44252790094937
C           -2.61161556261075       -1.97938989669966       -1.60929686967150
C           -3.23786070772193       -0.13898689254319       -0.01967857044081
H           -2.96795627234962       -2.77366520859811       -0.95615289459236
H           -3.44416055169921       -1.64314680771744       -2.21752525590053
H           -1.82218119557793       -2.37148307148476       -2.24727206199925
O           -2.89784143571339        0.36658065679791        1.18676560258977
N           -4.37504263639796       -0.08048335678110       -0.54523924557979
H           -7.06673394747817        0.21751293007282        1.90059359266882
C           -5.47442863898800        0.58005256406143        0.10662833540609
H           -5.23623780970950        0.83563759339162        1.15279820146709
C           -5.79746649303206        1.85799866359464       -0.69172720718796
C           -6.67183282865189       -0.33868106316622        0.06966499858563
H           -4.90374626444452        2.48539164425622       -0.70105920404175
H           -5.99846017588903        1.53494071218227       -1.71368545726023
C           -6.98553574976121        2.66512323832007       -0.15815209542310
O           -7.44888696098820       -0.35084235705283        1.22052326183119
H           -7.83544021877297        1.99233895850254        0.00082179868062
C           -6.64949362084614        3.36678486657944        1.15737608084813
C           -7.40426681779120        3.70004656086583       -1.20082489572831
H           -5.84201783518694        4.07983917375135        1.00466602460824
H           -7.51686582393982        3.90756923166631        1.52943628157297
H           -6.33532948953910        2.66422275993762        1.92648368921556
H           -7.70562660223877        3.21057290033199       -2.12328850631499
H           -8.24240749287536        4.28923736579492       -0.83615323399718
H           -6.57885383735189        4.37389273966596       -1.42026212897646
N           -6.91603354049357       -1.00846678674022       -0.95276880770901
H           -9.04630317185787       -0.39758048667547        0.37318209340172
C           -7.99997665002812       -1.92967173649767       -1.16491931761224
H           -7.78068016556950       -2.41937137541154       -2.12072312586009
C           -8.14959884683350       -3.00077875429569       -0.07529291762438
C           -9.34986728350190       -1.21578747978358       -1.33873558561701
H           -8.42454973779268       -2.56223128287882        0.88157493161916
H           -8.91584676273470       -3.71328203550864       -0.37074521527519
H           -7.20456689519514       -3.52591259416866        0.04341681294158
O           -9.71334112743396       -0.41164446257026       -0.33932603974737
O          -10.04841405922381       -1.38454293755775       -2.29673165698376
