42
 energy: -62.486133506027 gnorm: 0.000480473525 xtb: 6.7.1 (edcfbbe)
N           -1.82718897394301       -0.33014467745012        1.49329940560893
H           -0.89344010048989       -0.70905353040434        1.38867806308129
H           -2.22229896905120       -0.73000558867898        2.34037484158846
H           -2.77931177534186        1.34879155934058        1.41665406700123
C           -2.66511288105397       -0.68965069214340        0.34799991450091
H           -2.09639717340402       -0.43838149925776       -0.55751235712386
C           -3.08055561611681       -2.15703024681575        0.29168975145501
C           -3.87118496365491        0.23562213971052        0.37247553779181
H           -3.60343423565889       -2.43737127850104        1.20289954710291
H           -3.75146791755531       -2.30910799032891       -0.54640871841282
H           -2.20611849874303       -2.79409327565298        0.17546722066151
O           -3.66674158974381        1.40690946586978        1.00888364949141
N           -4.94400061842431       -0.12018381706061       -0.17437700845195
H           -8.40519353022934        1.38456475764307       -0.68560824532922
C           -6.08723250838668        0.75665022195363       -0.21644887080954
H           -6.10464167352810        1.42917587643285        0.65765954029442
C           -6.07650967145426        1.60530661354597       -1.51061424719389
C           -7.32272902002631       -0.11401690055959       -0.15164038866974
H           -5.06738175052323        1.57323739563990       -1.92489248985011
H           -6.73282082016463        1.13727852293722       -2.24921481519515
C           -6.47511058399292        3.07381604013019       -1.30021259496372
O           -8.51529872587921        0.45901192458797       -0.43363148236485
H           -7.32106153290501        3.13304453507452       -0.60133691622823
C           -5.31344747046161        3.86260662375595       -0.70019639288656
C           -6.90830244089106        3.69647423655952       -2.62651656042262
H           -4.49874291670877        3.92985222854672       -1.41801266028670
H           -5.62777435472971        4.87115859095700       -0.44176057565792
H           -4.93539579294502        3.37709184821404        0.19559179850581
H           -7.77822676509735        3.18576528831989       -3.03522347531708
H           -7.16137670294879        4.74501230089541       -2.48859516382154
H           -6.10161399227526        3.63184344653198       -3.35306050409388
N           -7.19531162069292       -1.31162300054130        0.19876709018346
H           -6.08549662796679       -2.57324873131378        0.73793226349096
C           -8.27869098767459       -2.25051153278633        0.33133277894828
H           -9.09177997168798       -1.85309843806260        0.95220469132281
C           -8.85329072029843       -2.67626710343340       -1.02377021274473
C           -7.68184085215972       -3.48914886741291        1.02510529287028
H           -8.05141602774408       -3.02399668120531       -1.67187671229994
H           -9.56613975570632       -3.48227200308311       -0.87379536930906
H           -9.35267006200394       -1.83438463845681       -1.49652159444260
O           -6.36041908988399       -3.44640487198876        1.12261658096289
O           -8.34902197833615       -4.40524382470466        1.42053001733600
