42
 energy: -62.486133498306 gnorm: 0.000481677099 xtb: 6.7.1 (edcfbbe)
N           -2.10125867888717       -1.34386568727582        1.95653234843704
H           -1.55665140454445       -0.57650754085277        2.33541874170801
H           -1.52496120644902       -2.17658110953341        1.97015888949022
H           -3.89022400160244       -0.90548719370446        2.46441329782043
C           -2.55471946959565       -1.04647525859659        0.59779062821909
H           -1.83484770023851       -0.45535000617561        0.01475997526677
C           -2.85076923276959       -2.34352976873456       -0.15387427081289
C           -3.83660567104579       -0.23904678283540        0.71887504196014
H           -3.56566966279583       -2.94925934703255        0.39699809059668
H           -3.26266310553678       -2.10948192291067       -1.13017361950739
H           -1.93522064761262       -2.91651611889106       -0.28725549414867
O           -4.45499976874139       -0.32758307329680        1.90701953250413
N           -4.23792007702585        0.44126318177844       -0.26112721043484
H           -7.42360718330309        1.86137373143520        1.15210286196933
C           -5.46815102243959        1.19617318132689       -0.15865267991448
H           -5.33498995376665        1.99571417383223        0.58654811260527
C           -5.73405161062634        1.80193369623677       -1.54818403402035
C           -6.63997052448741        0.34137710589037        0.26553402067422
H           -4.82708230196496        2.32758877032235       -1.85000859103122
H           -5.87400937568588        0.96527377886451       -2.23406616196665
C           -6.93526566731125        2.74801930393824       -1.63967408134541
O           -7.63971432393768        0.94335930517813        0.94873434139916
H           -7.81995816836618        2.24958810580663       -1.22791935392905
C           -6.69355204356923        4.05061317041647       -0.87731934468708
C           -7.21971762135551        3.06258704633224       -3.10787648838529
H           -5.83444534385411        4.57242250174927       -1.29351443311129
H           -7.56088467042710        4.70225087890685       -0.95832383241315
H           -6.50192240951597        3.87853239103445        0.18002925338102
H           -7.44101341688570        2.15222098217860       -3.65944081287299
H           -8.07177139509184        3.73270820912579       -3.19657719716884
H           -6.35704322787257        3.54083752168057       -3.56631648443702
N           -6.65981011152220       -0.88119744672761       -0.02735030434663
H           -5.76233728868000       -2.34134478188122       -0.52998824123153
C           -7.74441905037032       -1.74976643458865        0.36280434584825
H           -8.07792926160972       -1.55223716665754        1.38947539740762
C           -8.94334955396318       -1.61879352699348       -0.58249665145130
C           -7.20960696679544       -3.18668707871215        0.28142692442205
H           -8.62162358861869       -1.76036917634402       -1.61243001687977
H           -9.68202313623637       -2.37508880938056       -0.33223775216712
H           -9.38826654354487       -0.63191188345254       -0.48199322998167
O           -6.02549221307688       -3.27047198043075       -0.31398072640603
O           -7.80767265812839       -4.13831067934141        0.70109409375986
