42
 energy: -62.486133511793 gnorm: 0.000480401059 xtb: 6.7.1 (edcfbbe)
N           -0.83756423244933       -0.38135400457299       -0.04227711474879
H           -0.03420414742985       -0.84682209719648       -0.44624504980043
H           -0.76590610170099       -0.46912147709979        0.96777503434776
H           -1.78876828204018        1.26301157251776       -0.14750542590270
C           -2.08434011195692       -0.98988602453320       -0.50382548236956
H           -1.99708149753515       -1.12611104092020       -1.58977510104648
C           -2.41764755609689       -2.33037813603046        0.14673539359957
C           -3.19694249648973        0.03135812528955       -0.27811431522907
H           -2.46818805729262       -2.21755011579702        1.22774024183646
H           -3.38512731057123       -2.67293089575745       -0.20383600356761
H           -1.65983826385918       -3.07203799624772       -0.09788959297404
O           -2.76824574678573        1.29631816619819       -0.13270810057312
N           -4.38466771670019       -0.37384330251850       -0.24586729655638
H           -5.69352052747209       -0.57451915820525       -2.22502356102069
C           -5.55891771635605        0.45673750003381       -0.08796148350414
H           -5.72855201836231        0.61119789517952        0.98233304261153
C           -5.51690274444238        1.81638516922037       -0.80910405264076
C           -6.70059332981444       -0.37638601486768       -0.63018394710472
H           -4.77143674805449        2.44574408575675       -0.32289385295024
H           -5.18757250278567        1.65692301471622       -1.84124343826009
C           -6.86458795506347        2.54708922600058       -0.82429404932834
O           -6.57533939127119       -0.80045750957199       -1.90146981770146
H           -7.60979481900786        1.91106583419224       -1.31532536437900
C           -7.35355622211742        2.85945765601981        0.58729599113081
C           -6.72599210489542        3.83819623371178       -1.62987001514978
H           -6.59818391722888        3.41901081368672        1.13527434123523
H           -8.25997101879770        3.45852035694514        0.54397987409221
H           -7.58004363621258        1.94653673193141        1.13076803810588
H           -6.39878712192263        3.62957961380738       -2.64627844332894
H           -7.67889296040237        4.35931502765338       -1.67876588374290
H           -5.99738574784067        4.49780753830158       -1.16311039373732
N           -7.67272459568022       -0.67412148832538        0.11215395174699
H           -8.66928813657389       -0.36702333486680        1.59553782551963
C           -8.77481004833498       -1.48046948650139       -0.36740581796014
H           -9.07255123329576       -1.20611270220244       -1.38694286037318
C           -8.42882208536455       -2.97337854314210       -0.33718562528338
C           -9.96031256043534       -1.24015927189683        0.57825910260453
H           -8.09024599574827       -3.25515118968838        0.65773114104565
H           -9.31221587140315       -3.55221617269673       -0.59170416359760
H           -7.63807912129480       -3.18348731008717       -1.05277831304839
O           -9.62666304927867       -0.58512752396232        1.68425813344930
O          -11.07192655571096       -1.62763559773033        0.34867746561055
