42
 energy: -62.486133510150 gnorm: 0.000480025075 xtb: 6.7.1 (edcfbbe)
N           -0.91339676401676       -0.98681796106547        0.54408673082430
H           -0.67058559095471       -0.25293144596263        1.20130477665090
H           -0.05491231733772       -1.33638720940889        0.13504166443270
H           -2.47014369650791       -1.75601051035664        1.27839035557138
C           -1.81545107132111       -0.48182551449136       -0.49017460869860
H           -1.58849441233749        0.54001154484016       -0.82058162635308
C           -1.79404906861148       -1.41544320500087       -1.70108674997406
C           -3.22051231135896       -0.49588042591895        0.09236272367894
H           -2.01969113977414       -2.43501524104943       -1.39459495631430
H           -2.53627751031755       -1.09048287342280       -2.42395404924502
H           -0.81379851267867       -1.40120333254299       -2.17254012443323
O           -3.37109713916231       -1.40594121552700        1.09816283365354
N           -4.07380509618164        0.28850794330509       -0.36770329521842
H           -4.96534562163937       -1.89591644200451        0.66561006182934
C           -5.46815255160111        0.46648513427858       -0.04221631998156
H           -5.51641420100134        0.83961985145545        0.99605355746611
C           -6.01208891636147        1.55526919767624       -0.98130832511753
C           -6.35866273389867       -0.76744109124595       -0.04382750734309
H           -5.16335995596491        2.16737310289489       -1.28892932638717
H           -6.41587064099427        1.07219228468575       -1.87080779753720
C           -7.08155872052031        2.45224151129996       -0.34682767887211
O           -5.87838010015783       -1.95799696714240        0.33509897400751
H           -7.78012717221365        1.82022638737135        0.20933768692136
C           -6.45579497548856        3.45826085818153        0.61774919647191
C           -7.85079232794345        3.19651164233919       -1.43659744549190
H           -5.78770585315544        4.12885753015688        0.08189053055854
H           -7.22877212126311        4.05539366997269        1.09635605065124
H           -5.88374146273870        2.96052337234187        1.39707496781349
H           -8.34736576727333        2.50288608354301       -2.10975848144491
H           -8.60735841079884        3.84107201851210       -0.99520970966068
H           -7.17221339844094        3.81574183933667       -2.01943562420984
N           -7.57156490212268       -0.60108906076681       -0.35407978394838
H           -8.80441183606350        0.34687218945640       -1.27580594239669
C           -8.51682130402785       -1.69355389979485       -0.34632835391175
H           -8.07147873296572       -2.63208138880281       -0.69968592562402
C           -9.09791357379343       -1.91616585568062        1.05457302959589
C           -9.66514543813090       -1.30438880597988       -1.28895387385801
H           -9.50338781656809       -0.98281216881265        1.44041606510394
H           -9.89261101800189       -2.65487232872310        1.00082563033212
H           -8.32005379303271       -2.26996902175557        1.72682492161389
O           -9.62097898588329       -0.03603174580628       -1.67783804065849
O          -10.52590429371787       -2.06981432825327       -1.62397912197465
