42
 energy: -62.486132287315 gnorm: 0.000623326747 xtb: 6.7.1 (edcfbbe)
N           -0.89414385119796       -0.42474655236859       -0.41012434011472
H           -0.11893105033334       -0.77109150713610       -0.96286874034741
H           -0.80704559981832       -0.82628177011558        0.51981138604530
H           -1.83757793855137        1.24080339998019       -0.01946514365632
C           -2.17197163144008       -0.82545219959591       -1.00080562086235
H           -2.13018338282386       -0.56431601860814       -2.06646601493185
C           -2.51548546162638       -2.30546697650125       -0.86053219344759
C           -3.24955089287552        0.05430440138934       -0.38821925138412
H           -2.49791524221751       -2.59576931195353        0.18801129921225
H           -3.51687146912853       -2.47130190301894       -1.24257501098339
H           -1.80459223612117       -2.91821214616728       -1.41112412986294
O           -2.81114214424453        1.24901264714423        0.06553459002851
N           -4.43379142161679       -0.35585714200467       -0.34388573657683
H           -7.15943222537470        0.47650842380688        1.94592712362540
C           -5.50508205223282        0.46233218273708        0.16216553560012
H           -5.24842902423405        0.85992506802139        1.15747787323582
C           -5.78681567985072        1.63388350579679       -0.80270824153616
C           -6.74249463252313       -0.39729144293471        0.24849615661065
H           -4.87258887499992        2.22290300645262       -0.89152631494723
H           -6.00613354773804        1.18601479046164       -1.77352526461231
C           -6.94192744585250        2.55130733949185       -0.38897347685199
O           -7.54979285575165       -0.18133928309017        1.35807306930985
H           -7.82983061927459        1.94503410472793       -0.17829578500516
C           -6.59481311312892        3.38082063210550        0.84671983899193
C           -7.28379354295264        3.48173877091346       -1.55159872207606
H           -5.72683875005897        4.00501806145680        0.64537235154191
H           -7.42798013373375        4.02734557895502        1.11329375787853
H           -6.36599142824775        2.75717309697528        1.70873153520251
H           -7.58712114026704        2.90688400914776       -2.42287126523489
H           -8.10016946961507        4.14659692087768       -1.27946169464205
H           -6.42071384449934        4.08735674591408       -1.81982173649034
N           -6.99489844153883       -1.21493329891809       -0.65782911833936
H           -9.13058372262014       -0.30489706754946        0.48397409095685
C           -8.11741701193656       -2.11070432575031       -0.74531462696468
H           -7.89930744019026       -2.76650010106184       -1.59607715618178
C           -8.34391913833480       -2.97078975441009        0.50574845186476
C           -9.42311749503481       -1.37508152040635       -1.08409260605709
H           -8.61931342170014       -2.36291208184894        1.36482439190848
H           -9.13621074555518       -3.69000764991507        0.31320839166110
H           -7.42740875275039       -3.50683591389604        0.74125578837499
O           -9.77711458328265       -0.40498643823476       -0.24037938666643
O          -10.09774979620528       -1.66221393247609       -2.03114889916648
