42
 energy: -62.486133520841 gnorm: 0.000478758249 xtb: 6.7.1 (edcfbbe)
N           -1.07400335204701       -1.69956572829748        0.17955170395786
H           -1.04477804132811       -1.88108022343264        1.17741018738433
H           -0.11983548547672       -1.65880963201466       -0.15852822229048
H           -2.66036656173817       -2.51336864456242       -0.42639921787136
C           -1.78132854629041       -0.45081599205502       -0.10222128703998
H           -1.58385671228681        0.34675275816061        0.62564694202917
C           -1.41918542184129        0.04600506917314       -1.50195362675471
C           -3.27428922784951       -0.76246931860958       -0.08043825237956
H           -1.61255119022949       -0.73193807884374       -2.23773066898032
H           -2.01823199534720        0.91844550742562       -1.74454696665651
H           -0.36668028412769        0.31752239024196       -1.54793745844652
O           -3.53467203739926       -2.06484550698768       -0.39037725900351
N           -4.06679034351900        0.16238271208797        0.17074884369441
H           -5.15758961619141       -2.15522000488872        0.01297667618099
C           -5.48540226233797        0.37331795371118        0.19561005480088
H           -5.66592502682123        0.89751903246373        1.14222871418805
C           -5.68726194015631        1.38706544901942       -0.96296169505457
C           -6.49673036774570       -0.76639361150890        0.13563607927933
H           -4.87287573007323        2.10838808760298       -0.86345840094313
H           -5.53774911655776        0.84742604473568       -1.90148233011599
C           -7.01012164126176        2.15129046310252       -1.03931927066920
O           -6.11549796482354       -2.04718326242189        0.15842133976493
H           -7.80304465441175        1.45061718048837       -1.30569918385395
C           -7.36231956457083        2.83126336922303        0.28000257369744
C           -6.90884466802139        3.19487476498303       -2.15217553950036
H           -6.56172976238663        3.50154844482795        0.58669499378494
H           -8.27302948588594        3.41437220985234        0.16748305901247
H           -7.52221879755582        2.09817200742727        1.06588004199865
H           -6.65136407782178        2.72640913778743       -3.09921923431189
H           -7.85937153246585        3.70791045678155       -2.27328824359842
H           -6.14663440879035        3.93491576586570       -1.91614250161737
N           -7.72053796544950       -0.44435572546463        0.08850776694575
H           -9.14107768057580        0.77354466103922        0.12475031337480
C           -8.74576131155734       -1.46533918028653        0.04588410652935
H           -8.51536930411310       -2.24380962148695       -0.69212756057637
C           -8.95222840216401       -2.13032060699791        1.41393464269413
C          -10.06471800875305       -0.78435114698435       -0.33283400163745
H           -9.15731564548736       -1.37303922575084        2.16866377978022
H           -9.79411715242924       -2.81473673078836        1.35811030040205
H           -8.05829014919060       -2.68026464894656        1.69585012137442
O          -10.05576107452381        0.53075674598936       -0.14103374268788
O          -11.02673474566083       -1.38461902950295       -0.72518269406118
