42
 energy: -62.486133510271 gnorm: 0.000480796356 xtb: 6.7.1 (edcfbbe)
N           -2.10490517080794       -1.65908780499434       -0.69712427978305
H           -1.51434677691702       -2.45729873610871       -0.49812894235197
H           -1.49697517404099       -0.85980398285223       -0.85548448782395
H           -3.62697238779903       -1.21917468916490       -1.79362166254616
C           -3.00614079029000       -1.38408791578046        0.42181530607981
H           -3.43888448193496       -2.34214793704587        0.73453473508242
C           -2.35039052779098       -0.71378656960818        1.62588590931712
C           -4.15981262081317       -0.55522794283539       -0.11784919510796
H           -1.88469660037648        0.22312743754902        1.32505832547821
H           -3.11041622787767       -0.49674474309430        2.36899235052478
H           -1.59264561135832       -1.36411900950237        2.05822974868941
O           -4.34311180639728       -0.64673585410838       -1.45036893835461
N           -4.87981627691361        0.10663980365864        0.67189602223014
H           -6.74113010686050        0.77023618040008       -2.21502106104678
C           -6.02153963109918        0.85779080542125        0.17596512964299
H           -6.53267560131567        1.20815486509954        1.08078819956459
C           -5.58976133785024        2.06695511669617       -0.66111709969598
C           -6.96601792712464       -0.10446531531840       -0.52451866319581
H           -4.78448657954704        2.56411813110279       -0.11507642193488
H           -5.15686319351869        1.72228559204155       -1.60590262769301
C           -6.71930823356881        3.07709341441219       -0.91663218080073
O           -7.24974706688818        0.04550975068779       -1.83042332674759
H           -7.65022363753728        2.54107453687757       -1.13560906370417
C           -6.95934680338492        3.94925149929797        0.31378873984177
C           -6.37237300734319        3.95666576152960       -2.11790337077742
H           -6.07054521701877        4.53308112326976        0.54345746989488
H           -7.78362609292694        4.63573550723904        0.13500326813329
H           -7.20569545111232        3.34243073475356        1.18122071743234
H           -6.25974118514898        3.36410214178183       -3.02434512017097
H           -7.15621616027781        4.69037319496857       -2.28945921219091
H           -5.44012573704932        4.48851227368146       -1.93898774250903
N           -7.42024412427036       -1.05713417191388        0.16434276943945
H           -7.72287833267869       -1.80018622243851        1.77937767086153
C           -8.26322818582645       -2.08422923131270       -0.40138846003466
H           -9.05944896155967       -1.66372679634578       -1.02836155401332
C           -7.45162776493818       -3.08339321810348       -1.23405456364105
C           -8.90020822866565       -2.83954327598061        0.77485512433361
H           -6.64052899527669       -3.49025584590947       -0.63279576787888
H           -8.09906378391393       -3.89424625563146       -1.55522318683170
H           -7.03230177494085       -2.58498210173582       -2.10423331510059
O           -8.38682400950804       -2.51045062977224        1.95301539181764
O           -9.76128730317316       -3.66375118937648        0.63461362095761
