42
 energy: -62.486133515375 gnorm: 0.000479487321 xtb: 6.7.1 (edcfbbe)
N           -2.32680516323645       -1.19369202059946        1.76818492838188
H           -1.84027883073622       -0.35240130455587        2.05841315240228
H           -1.66924627856149       -1.96366052050633        1.79262512935390
H           -4.15543132955321       -0.96291773442831        2.32825902851719
C           -2.89576928346410       -1.03540956939304        0.43104272977647
H           -2.25200623633998       -0.48527668284498       -0.26840580103685
C           -3.22217041944434       -2.41060300738636       -0.15515694277607
C           -4.20310511631539       -0.28121497788923        0.58476638871927
H           -3.83168086756740       -2.98088114369545        0.54221440601966
H           -3.76974833577800       -2.28814358544243       -1.08454183971432
H           -2.30625795133499       -2.96311873649744       -0.35456704466769
O           -4.79959566043508       -0.46369541227136        1.77964186048697
N           -4.61095661434533        0.44965413063616       -0.35106054187429
H           -8.24578915108021        1.42782327472870       -0.88896187580455
C           -5.91123796882611        1.07077962819864       -0.34103910890743
H           -6.01980119579341        1.68575394367817        0.56975507999731
C           -6.02190780337043        1.96863733760172       -1.58973944183623
C           -7.04079945457127        0.05988164561282       -0.26714153360304
H           -5.01581982383111        2.05490345947686       -2.00136321667788
H           -6.63022662028124        1.47030850749411       -2.34935749717797
C           -6.57069167007924        3.37614352486004       -1.31220597603303
O           -8.27148519383428        0.50215943694916       -0.61619540041982
H           -7.44140252907074        3.31335522300205       -0.64405889757080
C           -5.51439207026873        4.23914263476584       -0.62579664555951
C           -7.01860115936752        4.03304281958273       -2.61673949060887
H           -4.66496292319953        4.38758428807600       -1.28829387851296
H           -5.92499131471434        5.21274063814556       -0.36771837482522
H           -5.15544489144441        3.76630524979842        0.28501130877164
H           -7.81180461383801        3.45994827807759       -3.09310496561148
H           -7.39001669429229        5.03778300497554       -2.42892595462299
H           -6.18292414064244        4.10061345827255       -3.30922136076803
N           -6.83219446858415       -1.11355522256658        0.12816350591649
H           -5.94524025643575       -2.06206255780757        1.44063748610251
C           -7.88393135097700       -2.09888713400152        0.21008633026087
H           -8.80292680805666       -1.67505163601058        0.63972730358618
C           -8.21099283574041       -2.69470500517682       -1.16117996820900
C           -7.39847257298901       -3.21421613721549        1.14842278362978
H           -7.29559545559105       -3.03162301447200       -1.64316839831949
H           -8.87724610702035       -3.54249346769315       -1.02920923030223
H           -8.69026253006988       -1.94866341874943       -1.78970118993674
O           -6.23788094616764       -2.95903141847601        1.73789252160249
O           -8.01609664455615       -4.22728268333466        1.33094594300929
