42
 energy: -62.486133510773 gnorm: 0.000479963775 xtb: 6.7.1 (edcfbbe)
N           -1.66649158122989       -1.98271626707388        0.09095958575782
H           -1.26505592807064       -1.67743186140331        0.97153172314583
H           -0.92665246797952       -2.39569375587896       -0.46500737477820
H           -3.49984944772729       -2.37203901485062        0.57376654138200
C           -2.27920333775562       -0.85903243064036       -0.61556910451455
H           -1.68956256490985        0.06749741917647       -0.57688441167568
C           -2.52169677745796       -1.23873288127741       -2.07683231740612
C           -3.63742337614035       -0.59430533693292        0.01943414564679
H           -3.12280647900693       -2.14352629005591       -2.13127597217988
H           -3.05361293503793       -0.43422366787172       -2.57490440414804
H           -1.57655713551191       -1.41085622672797       -2.58826611103948
O           -4.16243023686783       -1.65435734496530        0.65161751087810
N           -4.10211356107250        0.56877298706241       -0.06462410182164
H           -7.30532262055942        0.97114207838505        1.83176899718030
C           -5.42809095116384        0.99967092614017        0.28600124161478
H           -5.35040045072040        1.52086813184148        1.25256352897871
C           -5.83928520552497        2.01038447678750       -0.80770108535726
C           -6.49205136419283       -0.06656316861546        0.38765598773103
H           -5.00622549349480        2.70315569776165       -0.93250493375449
H           -5.94346335633102        1.44190442764257       -1.73316101138546
C           -7.12886680400072        2.79311061221970       -0.54134996988377
O           -7.48055178647509        0.16294942573180        1.33540163719929
H           -7.93707211523300        2.09400102786124       -0.29919078502236
C           -6.96496731118930        3.78901969430728        0.60644026685514
C           -7.53330357188965        3.54007003662702       -1.81162902842631
H           -6.19697210737902        4.51877790724473        0.35963456149363
H           -7.89796546665251        4.32040113283902        0.78113756744355
H           -6.67749338429632        3.30227846548181        1.53652313844260
H           -7.71637127301079        2.84082973936348       -2.62347089654964
H           -8.44147683817710        4.11415956204299       -1.64343918065594
H           -6.74446300871468        4.22415441181454       -2.11659194504610
N           -6.45153543304833       -1.06537939277268       -0.35853959737768
H           -8.85788765972757       -0.44512051410293        0.34527833397504
C           -7.35948303360109       -2.18035893604420       -0.38789056121407
H           -6.90049773505676       -2.90820760840720       -1.06717293439594
C           -7.58192357311555       -2.84118278041334        0.97911331909202
C           -8.72183236241891       -1.81464206986256       -0.99363392582492
H           -8.12111604937961       -2.18352226698833        1.65751490334703
H           -8.14908982475131       -3.75971565388093        0.85119036530362
H           -6.61493188598290       -3.07351501346131        1.41903807617024
O           -9.36825408265242       -0.80892251914443       -0.40357950994564
O           -9.19184076288679       -2.40512902125069       -1.92441759338248
