42
 energy: -62.486133518011 gnorm: 0.000479507731 xtb: 6.7.1 (edcfbbe)
N           -1.58437012634629       -0.56353875898419       -2.09783030894239
H           -0.88289077386159       -1.19158027135448       -2.47028621010830
H           -1.10881004253826        0.27988110651499       -1.78917338379033
H           -3.30646658776798        0.13511438868362       -2.57168811459970
C           -2.29413275233009       -1.17211539460536       -0.97467803949751
H           -2.57461500352130       -2.18905644384423       -1.27990016139527
C           -1.49209462031745       -1.23873907571864        0.32313415303538
C           -3.59936449954458       -0.40011164243686       -0.79901154118724
H           -1.19409408837579       -0.23846244225109        0.63053048613226
H           -2.10422684281263       -1.66780313520160        1.10883311460379
H           -0.60116074338543       -1.84884633630912        0.18760795584115
O           -4.00832900615701        0.24576976063540       -1.89688598182243
N           -4.18331469973512       -0.45388584677183        0.31388563080224
H           -5.54555952936802       -2.05873052443860        1.38455331253399
C           -5.46272142269899        0.17484566181923        0.60518993658976
H           -5.47197355309469        0.28665693507361        1.69970955727366
C           -5.72514992982976        1.53352898647673       -0.04659790848632
C           -6.49729614620114       -0.86805925084334        0.24206287227513
H           -4.83483125994939        2.15253919220579        0.08578743513681
H           -5.87393346273509        1.38126342853780       -1.11428761989168
C           -6.94233913540501        2.25635800925183        0.54269682412260
O           -6.36819065622733       -2.05341083393685        0.87623753920619
H           -7.74989424812270        1.52847431273327        0.66663883271066
C           -6.62419461892982        2.87647069405103        1.90195250834529
C           -7.41343150846750        3.34240054441634       -0.42290921887590
H           -5.84073417613425        3.62514409749903        1.80167192869532
H           -7.50736880561235        3.36053824800191        2.31257695177607
H           -6.29097129050199        2.12586984109096        2.61452437188482
H           -7.70327618048538        2.91261662150072       -1.37855700710206
H           -8.27051428817555        3.87110137678906       -0.01227373458143
H           -6.61797040490973        4.06413579596775       -0.59709325367895
N           -7.35532584624670       -0.64209086949284       -0.64727669852500
H           -7.94325892295004        0.40654408542245       -1.98042512041275
C           -8.31804587710481       -1.62930401255954       -1.07344755432754
H           -7.85294598414479       -2.60975306461220       -1.23810425314854
C           -9.45816615912619       -1.78743687177538       -0.06172637136328
C           -8.91049986185953       -1.12751814198355       -2.40046174560465
H           -9.90908914015239       -0.81855786009546        0.14443316490875
H          -10.21362370916505       -2.45023256750721       -0.47396939605221
H           -9.07508024836282       -2.20608982180953        0.86552559147641
O           -8.56163573130099        0.11793668792148       -2.69496794397924
O           -9.63429937458316       -1.79389237199271       -3.08706544131268
