42
 energy: -62.486133513151 gnorm: 0.000479432205 xtb: 6.7.1 (edcfbbe)
N           -2.31819206955372       -2.00135387010653        1.31366439559791
H           -1.36384589513499       -2.32852471465588        1.39919161764679
H           -2.90994601269579       -2.81540290194167        1.17205628730789
H           -3.60362713939503       -0.86134555013731        2.18723886400455
C           -2.46034042773590       -1.08233751996595        0.18668836885203
H           -1.63778028892708       -0.35856402740596        0.24914442148507
C           -2.44041953479980       -1.74942413188944       -1.18750961004201
C           -3.74996026536418       -0.30359049879553        0.40321030648051
H           -3.24374396252426       -2.48013999159229       -1.25935266616524
H           -2.59018566631392       -0.99730634746638       -1.95435643944313
H           -1.48903246864151       -2.25077426391134       -1.35418751926188
O           -4.20829411563521       -0.29864893496936        1.66237285331380
N           -4.28960807910320        0.28996542206255       -0.56753674679832
H           -6.20213858771899        0.07502223103575       -2.47804611528945
C           -5.53055161393507        1.02201547413750       -0.36630766829691
H           -5.62787686241477        1.35757334619748        0.67194949052612
C           -5.57526231450122        2.21134089916106       -1.32953631739530
C           -6.61111146825578       -0.00309055845684       -0.61979537728298
H           -4.84606745663946        2.94639876770711       -0.98362538468152
H           -5.24311142484346        1.88418710676496       -2.31952544162256
C           -6.95475483648509        2.87287977960427       -1.43556138585789
O           -6.81347816361301       -0.39130550645744       -1.89324440017753
H           -7.68211730090107        2.13269758539232       -1.78832336111545
C           -7.42982402498249        3.39904595008650       -0.08322846327947
C           -6.89613676684665        4.01058286539554       -2.45382106937218
H           -6.69332904124506        4.07829689194175        0.34069859236792
H           -8.36622057441372        3.93948713947674       -0.20085577788112
H           -7.59635117567347        2.58329471911555        0.61513867732422
H           -6.57467335065914        3.64633401806354       -3.42737051988712
H           -7.87520224279438        4.46928094236779       -2.56786896350472
H           -6.19572769511867        4.77553343018561       -2.12562929931611
N           -7.18670524333868       -0.52570585138201        0.36987166181515
H           -7.47313937545956       -0.58933162070889        2.15391276064173
C           -8.14331061412102       -1.60060178853876        0.23851303198218
H           -8.91918515313744       -1.36675468781072       -0.50075625188391
C           -7.47225681569034       -2.92364653771771       -0.14844771522383
C           -8.80269017425240       -1.78125321158214        1.61514449518989
H           -6.66874641498304       -3.14659814221935        0.55143145661560
H           -8.20733557287190       -3.72266988416222       -0.11248693975249
H           -7.06151422532620       -2.85315599471210       -1.15239959821897
O           -8.19945330779951       -1.10308742490567        2.58215020382708
O           -9.75294352796635       -2.49134841755693        1.79633065847322
