42
 energy: -62.486133513839 gnorm: 0.000479997174 xtb: 6.7.1 (edcfbbe)
N           -2.68013353929733       -2.22526902035585        1.37527684086242
H           -2.91219953964446       -1.99893919004433        2.33697558610340
H           -1.75010463469988       -2.62631539313971        1.36153177783932
H           -4.40859277708941       -2.57740786392628        0.66491613096188
C           -2.75140236259378       -1.03687241927992        0.52955469048499
H           -2.29660001654190       -0.14164487347857        0.97497590455129
C           -2.08236277378491       -1.32356742544817       -0.81508671602860
C           -4.23198132827425       -0.75414964159533        0.28709153250584
H           -2.53431523141669       -2.19842793118049       -1.27752889792225
H           -2.20826689614748       -0.46952564811784       -1.47335247947226
H           -1.01921144543901       -1.51046569783212       -0.67886538883796
O           -4.99658010841715       -1.85723522359243        0.34660752669254
N           -4.55590574712733        0.42445270005787        0.01627979762772
H           -7.67692395630696        0.87529984054619       -1.91733187712124
C           -5.84008657216085        1.02355689561221       -0.23836609351570
H           -5.98676771887187        1.70384732880736        0.61448873454358
C           -5.67930349272025        1.88319407181311       -1.50566838199512
C           -7.06586996393041        0.11969617714670       -0.25242806615037
H           -4.64230164987958        2.22281125231502       -1.51795536128305
H           -5.80688108695180        1.25475332650684       -2.39347108209487
C           -6.60315629895794        3.11146227962082       -1.55979631812262
O           -7.95211664434956        0.21625152743782       -1.26835584572066
H           -7.59681686019566        2.85122264528187       -1.17443653803115
C           -6.04891837435797        4.23738311242012       -0.68933810127388
C           -6.75348341069441        3.59546781751635       -3.00192736956487
H           -5.08668842344925        4.57074534649368       -1.07152586257508
H           -6.73002682773174        5.08516453443769       -0.68576295204592
H           -5.91249342536734        3.90623303992493        0.33701977538526
H           -7.20596246761180        2.83263080030947       -3.63360466245979
H           -7.38192735202671        4.48195030922858       -3.04106613025475
H           -5.78021843354836        3.84842644917298       -3.41673279609922
N           -7.22038921665128       -0.67653439657359        0.70738198193173
H           -6.41191331291337       -1.64953583285717        2.01072184602254
C           -8.32695204042659       -1.59293767952451        0.82886423976526
H           -9.28615625026053       -1.06147848454651        0.84490121356385
C           -8.35672823273705       -2.64822607166900       -0.28402676245701
C           -8.13525775791187       -2.33016544378835        2.16267669924059
H           -7.38146444847754       -3.12479211983534       -0.35862497328196
H           -9.10807031178961       -3.39709704796169       -0.04900294875679
H           -8.59686059596988       -2.18140187540719       -1.23519431797296
O           -6.89862140677286       -2.23934746590231        2.63621890521195
O           -9.00617830814235       -2.95523822032805        2.70290184815647
