42
 energy: -62.486133514772 gnorm: 0.000479677070 xtb: 6.7.1 (edcfbbe)
N           -1.59531367486553       -0.97280649660725        0.02878829082596
H           -0.98619739812865       -1.78195230270141        0.03804800186977
H           -1.25077501559620       -0.32301493441872        0.73072227872063
H           -2.40198671545689        0.20779420816129       -1.22771152343736
C           -2.97362767946136       -1.35394961963256        0.34062185082003
H           -3.21234883065855       -2.23618335938163       -0.26739442748594
C           -3.22971768089861       -1.67660456246429        1.81011792468264
C           -3.88072203163743       -0.23205353643379       -0.16039962752905
H           -2.99426796199294       -0.81393145810050        2.43056038183464
H           -4.27633220479604       -1.92424553651198        1.94860706360611
H           -2.61632326750228       -2.51856647296690        2.12487517634130
O           -3.32252585511512        0.52764870330969       -1.12628540691404
N           -5.03204927327583       -0.14538591869743        0.32197212426665
H           -7.89379426551754        1.32487062620574       -1.63519583390619
C           -6.08746521406132        0.77038694342889       -0.02126651487232
H           -6.42940135761878        1.16344643377748        0.94912142513768
C           -5.76730368612051        1.95975767295984       -0.94482380437174
C           -7.22550693290137       -0.10429467637507       -0.53485980047543
H           -4.72671208407846        2.24067067155838       -0.78826320687808
H           -5.84635183674911        1.64584895804966       -1.99008330596884
C           -6.63904204701314        3.19913158669001       -0.67287749902552
O           -8.11779268503493        0.41464469141521       -1.40274974608486
H           -7.66660889347085        2.89900330456139       -0.42766042950192
C           -6.09530546750054        3.98031161338381        0.52240679725260
C           -6.67891220785190        4.09763603704681       -1.90858432775288
H           -5.10051632607420        4.36174420773429        0.30218994255836
H           -6.74266699910736        4.82344837407153        0.75322354452200
H           -6.03181496319700        3.34822581934923        1.40526117697270
H           -7.12150124880942        3.58321656295486       -2.76008684628184
H           -7.26545686037416        4.99192367298654       -1.71080065202438
H           -5.67146131904850        4.40298431417204       -2.18223361452007
N           -7.29014330061976       -1.28410191884095       -0.10947336705405
H           -6.60550563404564       -2.48631243947228        0.97824149247516
C           -8.29882687934598       -2.23929015278943       -0.48862928013952
H           -9.31085773334524       -1.84683924803289       -0.32521105323835
C           -8.17271967863126       -2.68943788757185       -1.94791615512448
C           -8.08954343135286       -3.46296157510303        0.42416760334018
H           -7.15603020629412       -3.02525352162199       -2.14333463243246
H           -8.85998528274681       -3.51121234817273       -2.12833031912088
H           -8.40940719053025       -1.86513475147573       -2.61577668598326
O           -7.00297314519081       -3.37385686926655        1.17789577958536
O           -8.83039683691056       -4.40733096815081        0.43206302038709
