42
 energy: -62.486133512894 gnorm: 0.000479428531 xtb: 6.7.1 (edcfbbe)
N           -1.28685651622951       -0.54243857898230       -1.52459045599353
H           -0.66134690823567       -1.19649913379562       -1.97963250813152
H           -0.77902722482572       -0.12071351850189       -0.75150671592699
H           -2.54729427821072        0.84398433287190       -1.98546305423170
C           -2.47778209058940       -1.22621398106636       -1.01999553681594
H           -2.87150684441308       -1.83900743978045       -1.84136288263135
C           -2.23913594419201       -2.11459962521890        0.19753347306240
C           -3.53790976133919       -0.16195651442670       -0.75037005295291
H           -1.81495308900398       -1.53039366992478        1.01180951963916
H           -3.18760684788273       -2.52389119327493        0.52713154194057
H           -1.55773519524284       -2.92632518750632       -0.04956667685554
O           -3.38077130849990        0.95443649873373       -1.48507780700090
N           -4.43806600433340       -0.42382185324569        0.08015812743074
H           -7.67196957783374        0.27525653463860        1.68483235570436
C           -5.57606546005895        0.37508374619372        0.44234960755491
H           -5.52890010968965        0.46015521393826        1.53888901316711
C           -5.67845539585257        1.77924562423927       -0.18881677939801
C           -6.80655919648063       -0.43019195478243        0.08362870886664
H           -4.74585583197093        2.30826003810773        0.01292003873905
H           -5.75799319204061        1.64394117105114       -1.26808507253397
C           -6.85036588885562        2.63962547832575        0.29784615436756
O           -7.88911443994026       -0.29549042643421        0.93790038928676
H           -7.78836554453549        2.08591901143383        0.18096117158131
C           -6.68792111593954        3.05750912809208        1.75972048270883
C           -6.94762244662784        3.88788573258188       -0.57877392278016
H           -5.79722536956905        3.67160496428169        1.87395391018308
H           -7.54710158352496        3.64108077489215        2.08329633753201
H           -6.59164124047507        2.20356876524871        2.42826388027550
H           -7.12460176978627        3.61279406451500       -1.61527678481856
H           -7.76605085689739        4.52354859019573       -0.24831786673810
H           -6.02397708998130        4.46031246964930       -0.52798872689629
N           -6.79595572338255       -1.15517181452722       -0.93200288622562
H           -9.16121203010896       -0.27755539089900       -0.34782276450027
C           -7.85715726546336       -1.99508979009287       -1.42200015691768
H           -7.41305174660191       -2.57192621426119       -2.24151552475193
C           -8.43110877623841       -2.96496336427658       -0.37996871280334
C           -9.01205614173043       -1.18642288863563       -2.03323555934063
H           -8.94077870986443       -2.43537634888676        0.42200083475324
H           -9.13524400763061       -3.63866172179053       -0.86204984731206
H           -7.62037504620636       -3.54781472947305        0.05110103605605
O           -9.58195619672518       -0.28968607620118       -1.22836067580678
O           -9.39751748556150       -1.36202687348414       -3.15358053846777
