42
 energy: -62.486133514490 gnorm: 0.000479078907 xtb: 6.7.1 (edcfbbe)
N           -1.48578383117339       -1.29463662844862        1.10444145633600
H           -0.51136409410532       -1.53182075224180        0.96379450076666
H           -1.95384634732066       -2.12254734363389        1.46310659136836
H           -2.58461720283385        0.06160505245417        1.90784652902449
C           -2.11228794536973       -0.87510365391366       -0.14786937159722
H           -1.43580670141723       -0.15461897889563       -0.62588125943500
C           -2.40703927485559       -2.01294078948456       -1.12363469509157
C           -3.37808979046476       -0.11288488104006        0.22056869061938
H           -3.08625493615506       -2.73033562378371       -0.66745254020583
H           -2.87797304959311       -1.61518322510116       -2.01603962754374
H           -1.48635808415781       -2.52248219280050       -1.40136709809062
O           -3.39804387575156        0.38050781683150        1.46701633159479
N           -4.29077998468094        0.02638805997163       -0.63411725822589
H           -5.77211999859956       -0.41552570832132       -2.33621612391573
C           -5.51143631701408        0.74330934718045       -0.31426254411146
H           -5.57942048321194        0.99048527331872        0.75013290212418
C           -5.58999478067876        2.01965649360744       -1.16510570955736
C           -6.61929787884171       -0.22094414419709       -0.66379677293906
H           -4.83272223384441        2.71558990202292       -0.79836788263213
H           -5.32975576789887        1.76994486611546       -2.19786514021912
C           -6.96605020764426        2.69404853936722       -1.14056807379155
O           -6.59427998124717       -0.70727029443547       -1.91649246782282
H           -7.71390056230299        1.97828839803067       -1.50050181309049
C           -7.35690906923087        3.13026566331003        0.26879413788372
C           -6.95640696040264        3.89773452661474       -2.08170298943993
H           -6.59254778957610        3.77921921396695        0.69118033099027
H           -8.29590076370652        3.67805470509347        0.24299937732874
H           -7.48593315961785        2.27019344528299        0.91962213234518
H           -6.69846683422864        3.59738027205515       -3.09500154053753
H           -7.93580251441136        4.36902513683939       -2.10461299622688
H           -6.22949552203349        4.63438520579698       -1.74588444104704
N           -7.43853365872981       -0.58465722150145        0.22068103125603
H           -8.26787433403603       -0.28569320054384        1.80530189477769
C           -8.48145850541387       -1.54752063749177       -0.06263450248003
H           -8.95599914232698       -1.36289590627545       -1.03436588870234
C           -7.94316428889177       -2.98242650663308       -0.04046754329653
C           -9.54131812031720       -1.40988862145439        1.04015278664338
H           -7.42352636450870       -3.16836329530546        0.89750419370417
H           -8.77300232323215       -3.67752553897025       -0.13224091666952
H           -7.25155740589283       -3.13163409180594       -0.86585015438763
O           -9.16093508118879       -0.62875988691969        2.04397965451027
O          -10.60013609066827       -1.97244861841716        1.00411179426997
