42
 energy: -62.486133521527 gnorm: 0.000478283376 xtb: 6.7.1 (edcfbbe)
N           -0.94225964777828       -1.37598693108313        0.33867939124266
H           -0.65828728577790       -0.98809359916479        1.23172049342256
H           -0.10580385529019       -1.59398114285624       -0.18908082388693
H           -2.52641618407697       -2.29187418330341        0.68632364907870
C           -1.79390878204492       -0.43936219075631       -0.39442912309391
H           -1.52978161305532        0.61419226082097       -0.23638133244086
C           -1.74701976477656       -0.74641679698790       -1.89090431298346
C           -3.22547731178688       -0.65006327578681        0.08903262567596
H           -2.00965652087125       -1.78716973719584       -2.06930343188657
H           -2.45462663392842       -0.10964665317110       -2.41276324012683
H           -0.74959736845071       -0.56335360293324       -2.28507566282999
O           -3.41593619380318       -1.87056439546222        0.65875092134079
N           -4.04433689631449        0.27406906896261       -0.07666811837286
H           -5.08768133545414       -1.89369213413996        1.09877099601790
C           -5.45113705769887        0.43805837905211        0.17548304385401
H           -5.51446257462838        0.86941299617371        1.18911360900462
C           -5.94314354971365        1.49691937463939       -0.82693259145193
C           -6.37992470093206       -0.76860937251156        0.21684635683892
H           -5.08892852438486        2.13273828028861       -1.06289772437979
H           -6.24435724780686        0.98537549988438       -1.74103761034428
C           -7.09505436174131        2.36921491254653       -0.31441564948588
O           -6.04513238630475       -1.85441348193376        0.92513840142823
H           -7.83171853649350        1.72393258180467        0.17230281182633
C           -6.59954028507953        3.40049333242444        0.69769557431244
C           -7.76543641295214        3.08338685996058       -1.48686433154454
H           -5.88466082833109        4.07476071251840        0.23057136398179
H           -7.43181346190057        3.99112598933039        1.07361450330095
H           -6.11451044712475        2.92521327538801        1.54684166988703
H           -8.17443254392658        2.37108833834763       -2.19883076286005
H           -8.57758818697758        3.71397002397451       -1.13309259983494
H           -7.04534194929937        3.71313197852922       -2.00535645265988
N           -7.51015446592689       -0.65204470166948       -0.33499805181559
H           -8.56179731504720        0.14831364554843       -1.56320427333475
C           -8.49338209332673       -1.70852156544030       -0.28374099952649
H           -8.04075705588651       -2.70312399853652       -0.38628222356807
C           -9.29391095948762       -1.66254574098626        1.02293289159727
C           -9.46384695670577       -1.47590616497437       -1.45054423508794
H           -9.72013240048404       -0.67090057975707        1.16306453067831
H          -10.09722792806467       -2.39246418889438        0.97862087470907
H           -8.64251898125385       -1.89112112155209        1.86286351794469
O           -9.32020104339593       -0.28637583797511       -2.02300626395798
O          -10.28428961538292       -2.28119228425836       -1.79362222023171
