42
 energy: -62.486133504051 gnorm: 0.000480975152 xtb: 6.7.1 (edcfbbe)
N           -0.95647581976047       -0.65376779422235       -0.09934801726124
H           -0.12071220086299       -0.86254180662646       -0.63253666347497
H           -1.01848965436445       -1.33949598871801        0.64892858024936
H           -1.88380880695170        0.85923166316386        0.69782184298760
C           -2.14801813104473       -0.74353735463308       -0.94573154080119
H           -1.94076958950480       -0.16667263761497       -1.85671052540007
C           -2.56235755790660       -2.16055329306915       -1.33044464326200
C           -3.26974993782071       -0.01781700602622       -0.22165144286413
H           -2.70007973938054       -2.76507896107308       -0.43620462888226
H           -3.50781967960332       -2.12028159088017       -1.85996510766386
H           -1.80522239119000       -2.62387709160663       -1.95987570594714
O           -2.85806114408575        0.92869507251818        0.65168495920245
N           -4.46444330744493       -0.31050858724916       -0.46586868343729
H           -7.39135228781017        0.39235679839877        1.72639428786903
C           -5.54601927289620        0.40099281959665        0.16205492038661
H           -5.32063634552230        0.60718049126117        1.22169793340751
C           -5.76249608351695        1.73419425558238       -0.58838755341739
C           -6.79338712426517       -0.43990261923468        0.06113753307399
H           -4.82179626911465        2.28720083597446       -0.54765104595821
H           -5.96002253901714        1.47361221354197       -1.62980417486756
C           -6.89085146865152        2.62487310201624       -0.05909474279832
O           -7.71908274619197       -0.24601366150662        1.08129107555359
H           -7.81840423597963        2.04495232261839       -0.00144746931590
C           -6.56378637441957        3.19792652101858        1.31977067479351
C           -7.12805388724503        3.76932420273136       -1.04374227009600
H           -5.66612414780525        3.81001650675424        1.26474720493801
H           -7.38206027616086        3.82121288602287        1.67363951589016
H           -6.38958656263477        2.41991991877843        2.06089654532651
H           -7.40898780871322        3.38133140096758       -2.01945170392173
H           -7.92762650295165        4.41563323766605       -0.68931853061038
H           -6.22622728733995        4.36728602630449       -1.15617930274934
N           -6.94848163587039       -1.23349086516915       -0.88657884041868
H           -9.18375430948726       -0.31630179125952        0.02818990298976
C           -8.06496617138564       -2.10695225456424       -1.13025967821283
H           -7.75999645089510       -2.73914945359944       -1.97211094099486
C           -8.44290826658349       -3.00240155754996        0.05831959552518
C           -9.31899155903636       -1.34525588315346       -1.58765268935745
H           -8.79890196545290       -2.41610682803598        0.90270750168869
H           -9.22328244282270       -3.69642084729546       -0.24408118836665
H           -7.56870084063826       -3.56734438746835        0.37343833793529
O           -9.75082645336477       -0.39089487589536       -0.76297136161203
O           -9.89287196905026       -1.60359924362066       -2.60671690990058
