42
 energy: -62.486133510769 gnorm: 0.000480241587 xtb: 6.7.1 (edcfbbe)
N           -0.92573694378734       -0.46795551153590       -0.31415417877718
H           -0.15960682867375       -0.88666800626041       -0.82750679668551
H           -0.82556250806674       -0.74281689155283        0.65908025488377
H           -1.84192841203155        1.23856618412154       -0.14770903499795
C           -2.21370495430431       -0.93445751893471       -0.82760081944886
H           -2.18440566199967       -0.82804500771794       -1.91974372319900
C           -2.56490879418961       -2.37655816380572       -0.47341222815294
C           -3.27460125844540        0.03812801306333       -0.33362014403628
H           -2.54984777895724       -2.51205556216876        0.60607408842438
H           -3.56472645893265       -2.59715703822966       -0.83101939389981
H           -1.85520820447439       -3.06530828316533       -0.92695434726322
O           -2.81487096688574        1.27217558959001       -0.05170356392933
N           -4.46243751481682       -0.35060366368681       -0.22383307162504
H           -6.38818247939864       -0.71948854159052        2.07932081936477
C           -5.54462513988350        0.52922905147784        0.17240610029351
H           -5.34782372231900        0.93664747071010        1.17594922115583
C           -5.71573095857503        1.68856057628483       -0.82135207936491
C           -6.75598552005714       -0.37496138512892        0.21483742127057
H           -4.83369867733503        2.32484947561485       -0.73662646183126
H           -5.73764294650486        1.25498472938202       -1.82181127793407
C           -6.97356600099585        2.54081728572864       -0.62536881355624
O           -7.03767287091264       -0.95667041254943        1.40661834288278
H           -7.84146350557866        1.94368059073205       -0.92488956988935
C           -7.15910928263928        2.99191190731191        0.82157770293535
C           -6.89862719847257        3.75710985278983       -1.54760394980283
H           -6.25658985970791        3.47814036444535        1.18647404684620
H           -7.98005405660655        3.70236834133997        0.88949871383409
H           -7.39359901436589        2.15299429633984        1.47261524227488
H           -6.75664337697257        3.44554541033715       -2.57942549885220
H           -7.81565629801594        4.33878473388797       -1.48742183383654
H           -6.06677075388359        4.39805934924038       -1.26364323529801
N           -7.40627996505033       -0.61670558930427       -0.83511217581784
H           -9.15631353900401        0.57370022120882       -0.09899508050282
C           -8.48715467115632       -1.58241714794108       -0.83705437076602
H           -8.97821220716389       -1.47236798424188       -1.81638947524965
C           -7.98898386336554       -3.01858439099198       -0.68833903578985
C           -9.55820085578172       -1.27470315246974        0.21615787041347
H           -7.50339717796953       -3.14221001609113        0.27531283598663
H           -8.83333343532613       -3.69944320892560       -0.74249350556526
H           -7.27970218960933       -3.24607755459931       -1.47948911343895
O           -9.77297371142072        0.03486262178735        0.42168296254707
O          -10.20065169887617       -2.10788685915048        0.78460223425305
