42
 energy: -62.486133520922 gnorm: 0.000477926407 xtb: 6.7.1 (edcfbbe)
N           -0.90888503568991       -0.96381284839870        0.13884206841855
H           -0.47785586491027       -0.08549791832877        0.40760673564623
H           -0.18763426278573       -1.55602825878816       -0.25456111389169
H           -2.32601625525373       -1.16221516700366        1.38781039196693
C           -1.98141618846126       -0.73951214275514       -0.83076700912276
H           -1.76311009183764        0.04851397907336       -1.56302761815766
C           -2.29579749008015       -2.03831600495760       -1.57441134078413
C           -3.21370830455095       -0.33362624385935       -0.04516355442951
H           -2.52137092611071       -2.83332151332772       -0.86645230541015
H           -3.15453050723870       -1.88615734072772       -2.22134944382234
H           -1.44579328049190       -2.34116640213745       -2.18200881814533
O           -3.21579376655708       -0.77259049161658        1.24260718335946
N           -4.11459480507285        0.33770046480744       -0.59770788240031
H           -5.02409964922636       -1.24484026328456        1.47630531422087
C           -5.34441273895699        0.71798530272364        0.07451825224349
H           -5.12338549179096        1.05941911961793        1.09925265399209
C           -5.97464985054623        1.84539759114661       -0.74380608786248
C           -6.24049106453393       -0.49847729676531        0.18986459656474
H           -5.21044916024880        2.60995566612337       -0.89357897035911
H           -6.22620420027093        1.43318370438548       -1.72033348771249
C           -7.21580329527804        2.47799250905933       -0.10668591024915
O           -5.89499975996458       -1.43667552209710        1.09008389909924
H           -7.88146582140539        1.67765151637159        0.22886807435697
C           -6.84813897138182        3.34689998437126        1.09474341975159
C           -7.95355953978681        3.31774607952414       -1.14783030668020
H           -6.17441182334759        4.14616272811088        0.79235220849337
H           -7.74108991898754        3.79692238121480        1.52243644100956
H           -6.36244496316957        2.76342178066105        1.87285549655406
H           -8.26951613462751        2.70299801050456       -1.98696375219824
H           -8.83636608351125        3.77794141367730       -0.71018921382230
H           -7.30680109005843        4.10771866977699       -1.52385529523447
N           -7.24783444185487       -0.60287199949179       -0.55820538477044
H           -8.17611982931298       -0.03356691788081       -1.98893460146239
C           -8.13009915649091       -1.74420871898764       -0.51707554140897
H           -7.57818220556005       -2.69128912721145       -0.46593363158187
C           -9.09580703832084       -1.67004143277500        0.67157190593652
C           -8.95830256459994       -1.71298697867868       -1.81118810966612
H           -9.63485868672510       -0.72463471371047        0.65414946120643
H           -9.80911047162160       -2.48673463019824        0.60630915159950
H           -8.54168465937366       -1.74633623397942        1.60380607966713
O           -8.83814361177988       -0.57505506162037       -2.48316614056180
O           -9.66125225882457       -2.61967350519842       -2.16185269921780
