42
 energy: -62.486133511277 gnorm: 0.000480054067 xtb: 6.7.1 (edcfbbe)
N           -2.33015894555936       -1.63243980895518        1.88559906858092
H           -1.60369983992313       -1.12056979088506        2.36958274013886
H           -2.04030582114000       -2.59759795195308        1.79336006974956
H           -4.03017045372827       -1.12154760763062        2.39348877176765
C           -2.64625418319610       -1.04356930287326        0.58261847295903
H           -1.88830343840178       -0.32146170263377        0.25550683962238
C           -2.79432505587541       -2.11892406164520       -0.49221531670764
C           -3.96367812166837       -0.28477068663605        0.73393668705389
H           -3.47521593550402       -2.89742309953513       -0.15644461369577
H           -3.18680123147352       -1.66825981627254       -1.39831586406449
H           -1.82689819189361       -2.56739130116767       -0.71067133001146
O           -4.60126796869293       -0.49192894863693        1.89202071402561
N           -4.33262066989948        0.48192752004256       -0.19411967656777
H           -7.76861483487053        1.90443908840359        0.68413284793152
C           -5.58293347959207        1.20321573838077       -0.12650076660579
H           -5.51199016787017        1.97052153372621        0.66028478677297
C           -5.74898569542520        1.86992223231490       -1.50805264993323
C           -6.77360384523990        0.32878480087820        0.19496964981619
H           -4.79850060058979        2.35802859560868       -1.72926007445755
H           -5.87740638697453        1.06497641723321       -2.23388548132975
C           -6.88639768971694        2.88379187146147       -1.66657488567397
O           -7.90566586207088        0.95377335651555        0.59434517666571
H           -7.84207537456840        2.40641955400878       -1.42306043138176
C           -6.68958430310094        4.11085429485788       -0.77616445579164
C           -6.95890010367140        3.32511377598170       -3.12874545546643
H           -5.75647299037477        4.60868098319611       -1.03067983298075
H           -7.50387774269074        4.81748585172247       -0.92199837637292
H           -6.65423451073862        3.85592448170002        0.28165953056307
H           -7.13857446933079        2.47227283928013       -3.77874260150560
H           -7.76597512038675        4.04025761845808       -3.27107982938718
H           -6.02567714701077        3.79560959832238       -3.42981928615064
N           -6.68462665627936       -0.92284720463299        0.12529962196941
H           -5.62933289554869       -2.32361187362161        0.14604355734237
C           -7.77734508216721       -1.80265806399750        0.46146968620419
H           -8.31862858459832       -1.46205194498478        1.35331287903916
C           -8.76803860195134       -1.94445886409216       -0.69838578210392
C           -7.15785299009687       -3.17853580579667        0.75173809786897
H           -8.23914252470048       -2.23231499595706       -1.60487359244016
H           -9.49911368098891       -2.70989028387416       -0.45368431552238
H           -9.27706101513834       -0.99913666000716       -0.86948300840040
O           -5.86436607561496       -3.23629074651526        0.45589230190155
O           -7.78151297400454       -4.10634538783347        1.18643105188749
