42
 energy: -62.486133510942 gnorm: 0.000479805970 xtb: 6.7.1 (edcfbbe)
N           -1.74694602242667       -1.25064312132174       -0.68772559344845
H           -1.13819144437148       -2.05715856645340       -0.62150548545660
H           -1.21252396882185       -0.43981794779936       -0.38865253283862
H           -2.99206915773623       -0.47206220690919       -1.92563455457081
C           -2.92182099828733       -1.41240733079717        0.16907765352490
H           -3.31850744390422       -2.41995982434986       -0.00989911858448
C           -2.65803615118212       -1.23504378154806        1.66120624751227
C           -3.98329752199279       -0.44105714996246       -0.33116097107902
H           -2.23029013683452       -0.25256689415868        1.85192133340662
H           -3.59631318702675       -1.31043544151922        2.19994071778251
H           -1.96983439934788       -1.99767233206676        2.02006600905298
O           -3.83543688285874       -0.07826400626670       -1.62141119156594
N           -4.90789654767600       -0.09996110978822        0.44537239456697
H           -7.14515359093364        0.93629154433633       -2.13696369164195
C           -5.99946719812233        0.77790648090039        0.07198801072407
H           -6.39364121666455        1.13154094192500        1.03425647704837
C           -5.61315692774662        1.99270429203643       -0.78037184024882
C           -7.07720842122146       -0.11190744870285       -0.52875920589054
H           -4.67962693520568        2.38967002521258       -0.37449242653930
H           -5.39130925509094        1.68265654780081       -1.80569931083503
C           -6.67358839302580        3.10602222867400       -0.76556865856981
O           -7.56459146661892        0.15428366717504       -1.75525658302016
H           -7.67541645009513        2.66178618696549       -0.81127008251864
C           -6.58403241615187        3.92788989359605        0.51875193018859
C           -6.49113608285035        4.01895510194677       -1.97820581721019
H           -5.61931931230505        4.42719953599255        0.58105917433464
H           -7.36358815416943        4.68589551910185        0.53812084075109
H           -6.70171415724868        3.29791940013784        1.39681535125585
H           -6.61458330197152        3.47102405250003       -2.91085556667381
H           -7.22113653777375        4.82460863521193       -1.96045526855013
H           -5.49635332881373        4.45942241846736       -1.97073372230792
N           -7.44710062841705       -1.10388013773184        0.15169609433469
H           -7.38445593759668       -2.00716795359524        1.70023782264322
C           -8.41944851442877       -2.06294507981278       -0.31298395475405
H           -9.33289622045947       -1.57354374737296       -0.67426166411780
C           -7.86772550713594       -2.96102001813911       -1.42599909465340
C           -8.77514180334555       -2.94946875520507        0.89259562164279
H           -6.93048514076585       -3.41171429722499       -1.10501912684292
H           -8.58666560403000       -3.74692268598759       -1.64007462806506
H           -7.69116734831867       -2.37623238471689       -2.32500264108030
O           -7.99941861334476       -2.74105462146649        1.94735997483089
O           -9.65549896013683       -3.76489548401051        0.86643242427551
