42
 energy: -62.486133509225 gnorm: 0.000480522517 xtb: 6.7.1 (edcfbbe)
N           -1.30266830136888       -0.69416557220652       -1.57714459658879
H           -0.69586055159155       -1.41695424594048       -1.94447152716933
H           -0.74378669664798       -0.10565446468549       -0.96516182964896
H           -2.61017810433033        0.56824516905451       -2.17202522808540
C           -2.41431188015928       -1.27604824982703       -0.82640746595569
H           -2.83289271023680       -2.08518473314718       -1.43802395077915
C           -2.03321621029971       -1.82806464310653        0.54500066698035
C           -3.50822161060787       -0.21371315910204       -0.72510959167426
H           -1.59074015731364       -1.04271654849225        1.15479943296189
H           -2.92515366200245       -2.18854666552315        1.04496899178435
H           -1.31900136409130       -2.64305261164863        0.44393974920904
O           -3.41787924106181        0.75320473688087       -1.65019531877973
N           -4.37731479553986       -0.35131380800523        0.16907498185688
H           -7.11677788927605       -0.25047231847811        2.12569909929196
C           -5.52605360042276        0.48580861405557        0.41018166925167
H           -5.45431398041502        0.76402627419884        1.47309405694397
C           -5.70217091667745        1.75074587597163       -0.44286938942037
C           -6.73569911769957       -0.40855454002732        0.22186556795461
H           -4.80188816304073        2.36115586314939       -0.36497498218391
H           -5.81099588756567        1.42958442696065       -1.47828739477916
C           -6.92355051102885        2.58524084831436       -0.03850613788274
O           -7.51664648885046       -0.63959542252654        1.33870645928576
H           -7.79161333190413        1.92319752639232        0.06038758843029
C           -6.70332338234136        3.31404327793555        1.28648817512955
C           -7.23208019305023        3.59900822997314       -1.13833087249464
H           -5.85794637957953        3.99421490233659        1.20427461775632
H           -7.58489710387066        3.89516581628595        1.54781511933394
H           -6.50478774772902        2.62278143775591        2.10287659208844
H           -7.45576076939295        3.08956145673541       -2.07201057518017
H           -8.09086530428836        4.20847865468530       -0.86638533731261
H           -6.37937645572162        4.25540081026368       -1.29838594411017
N           -6.96142277788729       -0.88705385885367       -0.90939847325647
H           -9.11639511957063       -0.54262443501643        0.48203971259733
C           -8.03294776229545       -1.76997863629084       -1.28909393338627
H           -7.79908207317052       -2.08450142454960       -2.31283818637706
C           -8.17904501780954       -3.01403737399588       -0.40225447774897
C           -9.38657443614358       -1.04588533406605       -1.35355367118525
H           -8.48173504829802       -2.75155786826803        0.60904498630915
H           -8.92347090732464       -3.67936063262064       -0.83260482686020
H           -7.22437077395527       -3.53289166900752       -0.35317998641521
O           -9.77255904684084       -0.43680623379179       -0.23211905688505
O          -10.06861580432097       -1.04315513735347       -2.33798949498129
