42
 energy: -62.486133492090 gnorm: 0.000482765145 xtb: 6.7.1 (edcfbbe)
N           -1.63980091986723       -1.40470782278788       -1.26593579410626
H           -0.98497970587307       -2.17379600213382       -1.19448884215071
H           -1.09760046440414       -0.54684604412429       -1.32651686494619
H           -3.18225362790489       -0.93525104628904       -2.24868875892701
C           -2.51832118827118       -1.35268501128786       -0.09688078909739
H           -2.86304691367855       -2.37576577259491        0.10051867870657
C           -1.87264210925372       -0.78696214659570        1.16479124603041
C           -3.75209994793630       -0.55486296412547       -0.49447972759008
H           -1.49675469695073        0.21649898955104        0.97508485116958
H           -2.61681364531895       -0.72984202428837        1.95149774478548
H           -1.04882654806428       -1.41975392749863        1.48825178299679
O           -3.95246287804649       -0.48928869236917       -1.83636207181457
N           -4.47498395419847       -0.05234826119495        0.39721454760135
H           -5.89413705476958       -0.20702447356992       -2.13085281859912
C           -5.69673338939215        0.68919380533363        0.14850966840823
H           -6.04003801039839        0.98440511981507        1.14501158403447
C           -5.48015394766286        1.94195625962263       -0.71346906411046
C           -6.75113269886813       -0.23587380914172       -0.42181656299001
H           -4.78357743346248        2.59209627585295       -0.17884007841771
H           -5.00265756314850        1.66418651893861       -1.65682828495305
C           -6.76986910147793        2.71396210109137       -1.01565590144398
O           -6.71354824500113       -0.53659234773757       -1.73006089082449
H           -7.46324628588333        2.05371184335292       -1.54866309566862
C           -7.45466344212852        3.19986410006302        0.25925757915457
C           -6.44291825568392        3.89984028893996       -1.92262579185283
H           -6.76171450591967        3.77820582988966        0.86674049710275
H           -8.30138876358099        3.83434966958745        0.00805308492420
H           -7.82353711508145        2.36426415419562        0.84775866474596
H           -5.96864590914599        3.56669653735805       -2.84354663892949
H           -7.34922038456885        4.44085995470279       -2.18297558594033
H           -5.76721187957641        4.58679060169603       -1.41719562718129
N           -7.59185592646115       -0.73245073154030        0.37620355287569
H           -8.39858655639534       -0.75759863558502        1.99602232469824
C           -8.60102978215816       -1.66977840157453       -0.06538941624049
H           -9.10009228359145       -1.32867604064729       -0.98110362251633
C           -8.01543888387257       -3.06485486948555       -0.31203881777397
C           -9.64508384903296       -1.77378423475384        1.05623067526070
H           -7.46820944694388       -3.39643056413301        0.56833608452181
H           -8.82369872123228       -3.76191165339672       -0.51436821567043
H           -7.33862236364061       -3.03847210508375       -1.16228473202436
O           -9.27465489270759       -1.17213733725933        2.17983008437644
O          -10.68399620713809       -2.36064504803683        0.93076063184354
