42
 energy: -62.486130990336 gnorm: 0.000513286371 xtb: 6.7.1 (edcfbbe)
N           -1.27780555273821       -0.31899881296875       -1.80203561396629
H           -0.60535272479213       -0.92294437718822       -2.25849581822960
H           -0.76507347106967        0.29617868982680       -1.17684459019541
H           -2.78883249512671        0.76122194453400       -2.27084962059224
C           -2.25407114353129       -1.09710391444546       -1.04288727119135
H           -2.60074779165009       -1.90821050185596       -1.69591644144297
C           -1.71815666969168       -1.69249166706039        0.25621007715114
C           -3.46147950920825       -0.19153094173523       -0.80461667953544
H           -1.39739271550727       -0.89980351649090        0.92819969362759
H           -2.49929582448197       -2.26209802033084        0.74670882631990
H           -0.87387354614884       -2.34787761531553        0.05104335587042
O           -3.58123328496587        0.80049321814724       -1.69634383315844
N           -4.22297838119597       -0.45737502137655        0.15787893912977
H           -5.52685865817429       -1.94237334358020        1.44193430293409
C           -5.45207837760790        0.22723622863124        0.51353217524713
H           -5.38772766939285        0.37764679325821        1.60176723680023
C           -5.76464071508148        1.55929243128835       -0.16894105095130
C           -6.50961787809544       -0.82913400406809        0.25943630871020
H           -4.89287035708091        2.20908253616316       -0.07743084973687
H           -5.93197097377458        1.37089319500391       -1.22861015647436
C           -6.98672768358734        2.26913457822731        0.42668689088446
O           -6.37879567405638       -1.95873396677590        0.98439044972247
H           -7.78400717413707        1.53323870279363        0.56753118973629
C           -6.66201190715820        2.90733230971748        1.77615844804590
C           -7.48089424593224        3.33936491279981       -0.54493387831701
H           -5.86905964907323        3.64437966182178        1.66500579433488
H           -7.53963760102671        3.40915630967493        2.17727035473236
H           -6.34072494383620        2.16445065689072        2.50230468587827
H           -7.77957873561789        2.89494473932960       -1.49105438776099
H           -8.33707281897825        3.86576058030708       -0.12936201524608
H           -6.69398885121235        4.06516026407589       -0.73909258513893
N           -7.36968482673913       -0.67298565078649       -0.64350107771074
H           -7.99913087950492        0.27908104977689       -2.03536478300209
C           -8.34343206358315       -1.68668037376743       -0.97347693727680
H           -7.88506730059604       -2.68002434394079       -1.06071073265687
C           -9.47108569172192       -1.75259202413558        0.06240282485797
C           -8.95207142469201       -1.29363236972140       -2.32887372573978
H           -9.91301707437544       -0.76676098975118        0.19424190780641
H          -10.23640062401569       -2.44147511573802       -0.28370175168375
H           -9.07771053941310       -2.09657952757135        1.01569063695002
O           -8.62070792643974       -0.06936023227313       -2.71900232602852
O           -9.67332589141515       -2.01730826261344       -2.95741285072221
