42
 energy: -62.486133512840 gnorm: 0.000479924572 xtb: 6.7.1 (edcfbbe)
N           -0.86332282000277       -0.15672210504199       -0.97569307555296
H           -0.17836123064867       -0.52233723715232       -1.62565875373473
H           -0.50648703603953       -0.31004417142488       -0.03640540035725
H           -1.93028547787054        1.41835526164787       -0.73056391241838
C           -2.15022781725591       -0.83295900882737       -1.13492755067625
H           -2.36882288399757       -0.86879857288295       -2.20996192394678
C           -2.20567608941736       -2.24841570851938       -0.56619067682971
C           -3.21381967096778        0.06735301221067       -0.51708284967014
H           -1.95712445616968       -2.23756349075169        0.49343925381503
H           -3.21024514586037       -2.64082150872351       -0.68070560954744
H           -1.50355577549128       -2.89588727641901       -1.08737578852796
O           -2.86059422706266        1.36124996680991       -0.42884360736627
N           -4.30208512204666       -0.44102500729922       -0.15232720832961
H           -5.69293722954408       -1.52017371037602        1.92253861886045
C           -5.42493803520497        0.30686032632733        0.38150401560062
H           -5.19340722732903        0.61192102261495        1.41284331106129
C           -5.80550172611648        1.54177443335149       -0.44496638765050
C           -6.53967433916057       -0.71952270718605        0.40483136820193
H           -4.94811244045398        2.21385069816024       -0.47669358089842
H           -6.01140723638285        1.20227457873241       -1.46116102495498
C           -7.01866967557423        2.30497927878345        0.09638943605225
O           -6.51055872591698       -1.61200156951985        1.41849948846162
H           -7.83243258875498        1.59503457777519        0.27168188515672
C           -6.69496917451994        3.01690439335366        1.40845946329388
C           -7.48061566181909        3.32152232691809       -0.94630023161358
H           -5.84659798501283        3.68552223966395        1.27764192810078
H           -7.54766778185621        3.60641409594637        1.73741963464686
H           -6.45663623997655        2.30769925141825        2.19738662810598
H           -7.76425623216498        2.82326712344590       -1.87000915973105
H           -8.33994401767701        3.87901516565084       -0.58108237444335
H           -6.68254985586554        4.02749282932522       -1.16626925220856
N           -7.37209182435517       -0.77979452634980       -0.53502818749041
H           -7.90412339067542       -0.25089165900712       -2.16649779290403
C           -8.39312557062667       -1.79883389487025       -0.59937903134514
H           -7.98826322254842       -2.79598653904316       -0.38547759508487
C           -9.54450666941844       -1.51437914330257        0.37180575052925
C           -8.95266925320516       -1.78121354838672       -2.03050661719114
H           -9.93355488467020       -0.51181228730732        0.20394756511965
H          -10.33970733855154       -2.23564966256897        0.20607544167862
H           -9.19221573117249       -1.59243450021242        1.39721707640965
O           -8.53513021967635       -0.74345754601165       -2.74481313172173
O           -9.70931922434660       -2.61279103972750       -2.44882503419221
