42
 energy: -62.486143125501 gnorm: 0.000732943260 xtb: 6.7.1 (edcfbbe)
N           -1.99364336026318       -2.00738496801982        1.11546764929681
H           -1.89805352117022       -1.59247647677372        2.03684550279428
H           -1.14024790077593       -2.51386601224370        0.91242133374114
H           -3.92546422300736       -2.26045365804734        1.01381088033054
C           -2.23670879471718       -0.97613254415061        0.10932100225948
H           -1.61564130927376       -0.07745365381519        0.22847921671571
C           -2.01293520110711       -1.55768766623809       -1.28787006126652
C           -3.69621077559265       -0.57079106681281        0.23153369427045
H           -2.65219743149962       -2.42507837582975       -1.44021383662294
H           -2.24305663572400       -0.80678604690328       -2.03816724928874
H           -0.97602235375813       -1.86433695126905       -1.40796428150379
O           -4.50065074451375       -1.51857758348943        0.73521378010307
N           -4.04826691905678        0.57192076683245       -0.15772284155011
H           -5.43108455434850       -0.33036528575746       -2.10744151160179
C           -5.43067227698655        1.01098216788852       -0.12622539862439
H           -5.66349318985747        1.34200357892037        0.89133659113121
C           -5.56493774871332        2.19184036686608       -1.10004163727873
C           -6.39713107105363       -0.09450231022230       -0.47858481342023
H           -4.90567277720463        2.98562685230531       -0.74666454719076
H           -5.19495642990527        1.88232584205826       -2.08196490107156
C           -6.99376232386842        2.72557605559395       -1.24686134495796
O           -6.20390483940297       -0.70652738394362       -1.66629376134476
H           -7.63950443102430        1.91344681866389       -1.60007419467614
C           -7.54786001477719        3.23494047420070        0.08084001575818
C           -7.01048256064031        3.84394799044242       -2.28801183320727
H           -6.88437685094955        3.98497767385828        0.50645625970653
H           -8.52459669321096        3.68787296839958       -0.07199843920201
H           -7.66280128019739        2.42122282097338        0.79141912604088
H           -6.64173630096745        3.48803837301749       -3.24767008473430
H           -8.02178351163743        4.21721640824459       -2.42864476059692
H           -6.38167371651862        4.67044924156853       -1.96379399541294
N           -7.32427559273649       -0.39417791569141        0.31737068809737
H           -8.30223351589505       -0.05109024558632        1.79524274480274
C           -8.27314707022794       -1.44434869836330        0.02042106545629
H           -8.65645083820777       -1.36842252803977       -1.00508477260225
C           -7.66031093211476       -2.83513145829814        0.21842898844115
C           -9.44349589073889       -1.28676681156615        1.00116984597972
H           -7.22359784739854       -2.90616351424050        1.21222510913402
H           -8.43535452041363       -3.58852487059486        0.10961584376235
H           -6.88162522030121       -3.00262483866392       -0.52068006835278
O           -9.19801131092454       -0.42147048245817        1.97809744824298
O          -10.46815875468116       -1.90327287909440        0.90519279647561
