42
 energy: -62.486133517999 gnorm: 0.000478984684 xtb: 6.7.1 (edcfbbe)
N           -1.07530973244797       -1.16749182430836        0.72558693859738
H           -0.80500704750010       -0.41377091870824        1.34889769284282
H           -0.22971982360189       -1.61944361452043        0.39817307553417
H           -2.80228079480005       -1.68341499047338        1.44098557183578
C           -1.85922784880732       -0.65511551891540       -0.39582566950784
H           -1.48872489016358        0.29254279931321       -0.80909348557248
C           -1.90938623208245       -1.70239410436885       -1.51098592690226
C           -3.27409818124240       -0.43399318728505        0.11318089131069
H           -2.28241886411571       -2.64928286227739       -1.12381040793177
H           -2.55927396721476       -1.35874958220288       -2.31092515517705
H           -0.91440644512704       -1.86575431638461       -1.91917105870408
O           -3.61767891535463       -1.22199145663421        1.15707691066495
N           -3.99447949235306        0.44135795732915       -0.42988290515678
H           -4.80498996700245       -1.67568465218450       -0.65715676624328
C           -5.38235390277850        0.67890793776297       -0.10145893601499
H           -5.45546678971045        1.00048953722792        0.94737175241574
C           -5.79030886966695        1.84292758969182       -1.02731647931849
C           -6.29079172306586       -0.53403151089518       -0.23962730531219
H           -5.02303031986304        2.60725732334525       -0.88835738241587
H           -5.70824968604374        1.48567910168340       -2.05550864142544
C           -7.16763826996810        2.47783299190983       -0.82858352282835
O           -5.76423356439370       -1.72759416463472       -0.56513589150801
H           -7.92824518261347        1.76774767891593       -1.15835760466500
C           -7.43157935709537        2.84947514181743        0.62776681062263
C           -7.27124315074026        3.72219814211630       -1.71064783053327
H           -6.65608529260112        3.51852148027733        0.99590317013511
H           -8.38955653624866        3.35645112860292        0.71554457086780
H           -7.45626918320939        1.96406203006407        1.25731422197567
H           -7.07737513210537        3.47393912079393       -2.75133184315167
H           -8.26795735188253        4.15065095685276       -1.64164062316269
H           -6.55111602001448        4.47543360304072       -1.39732276005030
N           -7.54057024648332       -0.36233147408664       -0.18432565529216
H           -9.07252598704769        0.64829105571714        0.17293891490979
C           -8.44647854588625       -1.47457465001308       -0.37491901020859
H           -8.20196142795605       -2.04508106491794       -1.27954070582376
C           -8.44631072586959       -2.42904011103952        0.82671060796715
C           -9.86277818415275       -0.90319251266273       -0.50766660902485
H           -8.66282292616727       -1.87682108436831        1.73942002114450
H           -9.20728529010007       -3.19072855591826        0.68203205708012
H           -7.47335991332998       -2.90369781915675        0.92211916035631
O           -9.97586365028056        0.34544783023005       -0.06918113368778
O          -10.78773182856809       -1.53705930390004       -0.93431393250119
