42
 energy: -62.486133504355 gnorm: 0.000480758316 xtb: 6.7.1 (edcfbbe)
N           -1.42308582057775       -0.44045308867850       -1.94689357568681
H           -0.77959303037480       -1.07857678064659       -2.39847122813938
H           -0.87248296755507        0.23109306213956       -1.41880162659134
H           -2.97780845965151        0.58449590653278       -2.39498231590561
C           -2.33150225233398       -1.15450139900989       -1.05162683736440
H           -2.71362849722954       -2.02403160136466       -1.60325017387405
C           -1.69736488113773       -1.62779505243785        0.25430197758675
C           -3.53381765512567       -0.24356800659347       -0.80943351959813
H           -1.31648755714840       -0.77770533893008        0.81662002001144
H           -2.44365991653921       -2.13141694069882        0.85875692418112
H           -0.87862448194131       -2.31491523662036        0.05055725072383
O           -3.73048246706260        0.66562329032926       -1.77324185085702
N           -4.22724706241721       -0.43609354687932        0.22005042663106
H           -5.66289767857215       -1.84026454155020        1.67800899448743
C           -5.44779260598533        0.25949687755258        0.58343396528393
H           -5.37224838261465        0.41624348659748        1.66985149339687
C           -5.75363296399798        1.59052769369128       -0.10459405801366
C           -6.51309663415576       -0.78950343313479        0.33585158037388
H           -4.88010584602861        2.23808627939027       -0.00913138582625
H           -5.91647557678455        1.40106371361369       -1.16425910616620
C           -6.98038065882697        2.29928703395403        0.48245039110806
O           -6.46591706584659       -1.87079663421136        1.14150468206859
H           -7.77386011856345        1.55925717478601        0.62623732580148
C           -6.66485020293844        2.95042343082602        1.82780768868023
C           -7.47905862874719        3.35728426257988       -0.50015824994406
H           -5.88073759387265        3.69618381444215        1.71213502729043
H           -7.54891124738539        3.44443973154238        2.22471908267247
H           -6.33503708019710        2.21637919985074        2.55912968704110
H           -7.77897422654761        2.90012012214389       -1.43983500890050
H           -8.33533494023492        3.88700412975262       -0.08875023222559
H           -6.69407921585169        4.08220897968898       -0.70523945492455
N           -7.30113936745978       -0.68107796787482       -0.63725806360471
H           -7.78439989579573        0.17297207113989       -2.14333827993350
C           -8.26536655540543       -1.70096071371746       -0.97456249646731
H           -7.81950581149850       -2.70380773375038       -0.95913295958124
C           -9.47187316295425       -1.68323841217143       -0.02974109454933
C           -8.75783962861227       -1.39344784331465       -2.39787177114082
H           -9.90645806338855       -0.68588815017224       -0.00022267049706
H          -10.21844953034303       -2.38560587681034       -0.38939005921276
H           -9.16091889686685       -1.96612376133696        0.97281243465017
O           -8.36155594765988       -0.20981987481549       -2.84752134776144
O           -9.44950868623984       -2.14462410608140       -3.02758641885264
