42
 energy: -62.486133515766 gnorm: 0.000479576113 xtb: 6.7.1 (edcfbbe)
N           -2.17651418654044       -1.56481766590094        1.44141082184971
H           -1.73516357116080       -0.77360739173258        1.89816214736569
H           -1.48876443662997       -2.30440568861462        1.36158080830003
H           -4.05444999333188       -1.38761283342301        1.96045960739024
C           -2.68855920440921       -1.18553596843460        0.12708715244517
H           -2.00679725097365       -0.55246733998368       -0.45736346377654
C           -3.01991633582656       -2.44576283177417       -0.67455342720871
C           -3.98240662358435       -0.42338087019266        0.35536903203366
H           -3.69485381103253       -3.08180029720780       -0.10549966032150
H           -3.49659472787240       -2.17108257147047       -1.61075342616871
H           -2.11341449285831       -3.00654507904627       -0.89200376444667
O           -4.63806014913216       -0.76939333216226        1.47265294845389
N           -4.33044697290469        0.45278067158401       -0.47658743515332
H           -6.70051378162460        0.49324643056778       -2.49371311367947
C           -5.61347321642777        1.13221571083181       -0.39071585839016
H           -5.75622502383233        1.50896366539712        0.63069535556956
C           -5.60847697858212        2.29205180987255       -1.38737602077649
C           -6.69806882037270        0.09813853330647       -0.61724560968873
H           -4.78700456509184        2.95342589932045       -1.10608204849223
H           -5.36276770185421        1.91160014181423       -2.38425681379417
C           -6.91407698840642        3.09705727849645       -1.42996074023107
O           -7.13416152520646       -0.11170091804696       -1.87829059455210
H           -7.75559188904777        2.42227784905865       -1.62520404173055
C           -7.17676926409222        3.80604898950215       -0.10303209121025
C           -6.84522317383999        4.11968283165506       -2.56379338036085
H           -6.33107135228461        4.43547923201138        0.16561580860637
H           -8.05998297903528        4.43551483489109       -0.18398441701426
H           -7.34673108784496        3.09050778340836        0.69699529313487
H           -6.68708755008538        3.63147474101004       -3.52339979848536
H           -7.77044441151296        4.68797519274528       -2.62004204837316
H           -6.02606503840791        4.81517222036198       -2.39478661381333
N           -7.07370639057086       -0.58713567586294        0.36640393342742
H           -6.70496657683329       -1.12174340101193        2.08330277524313
C           -8.00423307568358       -1.68474269729253        0.28397513868807
H           -8.97716842327970       -1.35403957223745       -0.09955968658366
C           -7.49893833992145       -2.84610988922109       -0.58124163784911
C           -8.18621141530259       -2.21150436052030        1.71755687479731
H           -6.51268803926328       -3.15754473448854       -0.24154070946640
H           -8.18629630485870       -3.68264857368528       -0.49096795157352
H           -7.43484221385004       -2.54056564516852       -1.62190815437450
O           -7.27833516775129       -1.76158968994058        2.57115966314212
O           -9.04912818906331       -2.98990260591209        2.02037031951202
