42
 energy: -62.486133514007 gnorm: 0.000479620501 xtb: 6.7.1 (edcfbbe)
N           -1.05076425100465       -0.47569030526848       -1.08020179401100
H           -0.40250279631129       -1.03109920476613       -1.62553030024578
H           -0.68300477403216       -0.41720751205414       -0.13429977353478
H           -2.06232402535086        1.16252834371686       -1.22452654741559
C           -2.37560197005877       -1.09633323912537       -1.05740938097890
H           -2.63813928052157       -1.33538256292031       -2.09600887662813
C           -2.47896302708519       -2.36245258278035       -0.21311583314611
C           -3.37220166129227       -0.03274282867108       -0.60685427249764
H           -2.19005604327611       -2.15277417450708        0.81466163523083
H           -3.50795210627780       -2.70367701109773       -0.21738884479257
H           -1.83289417370938       -3.14186265116547       -0.61230395220863
O           -2.96922548328548        1.22885915687748       -0.86309705633743
N           -4.43830991660775       -0.40957654523329       -0.07095500470027
H           -7.56532267921532        0.28961896613790        1.73882303649141
C           -5.54551688860408        0.39238389761139        0.37128696904960
H           -5.43710101829583        0.50788043634736        1.46049445513146
C           -5.68758879787870        1.77772641205484       -0.29524791327606
C           -6.79285645968199       -0.41821740169312        0.09021588079377
H           -4.77200214434458        2.34077298413507       -0.11509441349952
H           -5.76794367298808        1.60159014705779       -1.36970060390860
C           -6.88176369320302        2.61862302007758        0.17026008863897
O           -7.82154685941391       -0.29072423432770        1.01213003555616
H           -7.80476177420110        2.03610111989785        0.07836923033197
C           -6.71898883863418        3.08593242745257        1.61703883213754
C           -7.01881176838798        3.83600610618612       -0.74343310578096
H           -5.83317599696924        3.71119044435234        1.70805094130438
H           -7.58269181065560        3.67186664536661        1.92407903075689
H           -6.61334259099297        2.25538815261592        2.31347149680375
H           -7.19476112073474        3.52425643861750       -1.76977500330703
H           -7.85296500834486        4.45813885738320       -0.42708581007402
H           -6.11134639227818        4.43530750519546       -0.71609944640800
N           -6.84475307867416       -1.13954117130674       -0.92592393208567
H           -9.17605359081112       -0.28567010096090       -0.18241577769468
C           -7.92963216713162       -1.98571788865887       -1.34850234263626
H           -7.53654305557866       -2.55618192253356       -2.19803072975809
C           -8.42480926209000       -2.96402843731796       -0.27421740720231
C           -9.12955322505636       -1.18572292616267       -1.87837461217377
H           -8.87510282729134       -2.44060209359455        0.56634907295517
H           -9.16126366329327       -3.63610181722651       -0.70784184823135
H           -7.58379305049404       -3.54784827016995        0.09263063894249
O           -9.65342419865635       -0.29708511087612       -1.03382712060729
O           -9.58683610085768       -1.35995726542605       -2.97166459678255
