42
 energy: -62.486133509763 gnorm: 0.000480375867 xtb: 6.7.1 (edcfbbe)
N           -0.73652940427947       -0.33896245971952       -0.02907493261120
H            0.11985291081851       -0.35599149077924       -0.56844981887676
H           -0.67067593892584       -1.07183001265893        0.67184070055986
H           -1.84206709917877        0.93012236030841        0.87603797075576
C           -1.90256690835402       -0.56609419499090       -0.88272168061738
H           -1.76290363566346        0.02127815593576       -1.79835904502398
C           -2.14602346281940       -2.02661925273753       -1.25702158610090
C           -3.10977749086181        0.02937441721042       -0.17072447592141
H           -2.22989319225208       -2.63668800322804       -0.35893665113383
H           -3.07424343260557       -2.10242980841833       -1.81339297218485
H           -1.32768291973505       -2.40712863965590       -1.86453350930724
O           -2.81888114999683        0.90315942945028        0.80981826529452
N           -4.26785009645077       -0.29657712895644       -0.53658466733214
H           -5.25401220450796       -1.82327804701038        1.17718653956484
C           -5.43872250921565        0.29179791044108        0.08795555466659
H           -5.22165430591827        0.59513243651547        1.12524975078848
C           -5.88730224337185        1.51522246441093       -0.71853938243233
C           -6.47818974526205       -0.80559972873946        0.11941916500083
H           -5.02213089651099        2.17143535055001       -0.83753985319653
H           -6.18417273726262        1.16497830263087       -1.70740003781456
C           -7.03302096495070        2.30219995853364       -0.07276757471966
O           -6.16970940606364       -1.88142043567810        0.87737997449034
H           -7.79180314092375        1.59336014373565        0.27042375776506
C           -6.54351763038543        3.11715179999088        1.12284876243636
C           -7.66617759578061        3.22971935437965       -1.10851165929048
H           -5.78765373721344        3.83421202622490        0.80877727867251
H           -7.36972918413713        3.66494187075355        1.57023203567550
H           -6.11044676251235        2.47821941954108        1.88826027019087
H           -8.07163969353207        2.66181798299015       -1.94221181776122
H           -8.47471009126609        3.80289733880118       -0.66105247289087
H           -6.92554478051503        3.92742884183822       -1.49408339397685
N           -7.53011148790668       -0.72314380802187       -0.56248087318338
H           -8.47119885807313        0.10232855818495       -1.85747197689342
C           -8.52585102168351       -1.76834301954594       -0.58697817951667
H           -8.07384726378856       -2.76106605409407       -0.70581309136960
C           -9.38490707692770       -1.76499180496610        0.68241533950087
C           -9.43939309592283       -1.48722458893393       -1.79077529318417
H           -9.80986540792262       -0.77563909391674        0.84120799457888
H          -10.19156212291129       -2.48402871352193        0.57139251874684
H           -8.77640529242283       -2.03269398030826        1.54248955622685
O           -9.22704709441140       -0.30150519146744       -2.34766312689157
O          -10.27662308952684       -2.25754849653998       -2.17091229466016
