42
 energy: -62.486133530344 gnorm: 0.000477076197 xtb: 6.7.1 (edcfbbe)
N           -1.63659387469945       -0.96665173323190       -1.84844697026098
H           -1.01201756315988       -1.72214835888871       -2.10260520130977
H           -1.06334876112275       -0.17086387633173       -1.58108588055180
H           -3.18383701243200       -0.03709726607572       -2.48688064483686
C           -2.49892113639842       -1.35276471016002       -0.73294308861885
H           -2.90410505810437       -2.34627562108785       -0.96194064497191
C           -1.79798963320824       -1.39591774910991        0.62329163831572
C           -3.69150305757171       -0.39760566594123       -0.71988352697395
H           -1.36520264609000       -0.42376131773116        0.85119062033746
H           -2.52297140979831       -1.63644565204317        1.39278318742406
H           -1.00767488565996       -2.14427126079670        0.62190726083196
O           -3.89481229233321        0.24485020372270       -1.87554304004111
N           -4.36969457661284       -0.31998085704746        0.33527405550869
H           -7.26096902622777       -0.27450496821095        2.10801701121927
C           -5.56453159223139        0.47087782423209        0.51186276282245
H           -5.56173537830802        0.73117483084610        1.58128289026081
C           -5.68982866870265        1.75302287486178       -0.32474309450623
C           -6.75163711868371       -0.42743321686519        0.23372537393726
H           -4.76066429038554        2.31919101109641       -0.23498555271166
H           -5.81156257097926        1.45474623007153       -1.36492505456954
C           -6.87290356960965        2.63291911335716        0.09590442340068
O           -7.60374402229492       -0.66683409403239        1.29577197899078
H           -7.76133232167328        2.00128601905497        0.21329686819727
C           -6.60379467648757        3.35998559940621        1.41273280159063
C           -7.16467980649725        3.65143255809583       -1.00420315477790
H           -5.74492283720900        4.01958803510924        1.30702374272530
H           -7.46447729913704        3.96272897221096        1.69405478821209
H           -6.39985748617567        2.66620566600885        2.22547836669422
H           -7.42296800536716        3.14616070497008       -1.93122779297808
H           -7.99553247247998        4.29334432666171       -0.72033623856308
H           -6.29180129972821        4.27582483709641       -1.18262308792981
N           -6.90148396233026       -0.89773446541419       -0.91313640301616
H           -9.14196342431926       -0.57017290043457        0.32922710593973
C           -7.93783438906841       -1.78445595846503       -1.37148857276207
H           -7.63295346658320       -2.08840343185101       -2.37965945583185
C           -8.13344253482610       -3.03675517008246       -0.50575464015231
C           -9.29169641588124       -1.07314952536443       -1.52000788060019
H           -8.50308491276917       -2.78390383349404        0.48563546129604
H           -8.84415807530238       -3.70281290951727       -0.98877478960454
H           -7.18103696428756       -3.55113826034800       -0.39815107586920
O           -9.75248606916167       -0.46861642426596       -0.42475780064275
O           -9.91043671104594       -1.07566524322341       -2.54542148694345
