42
 energy: -62.486133510284 gnorm: 0.000479923318 xtb: 6.7.1 (edcfbbe)
N           -1.98195547624658       -2.08846341730937        1.13135914016420
H           -1.98177805033921       -1.85588534615248        2.11904109498094
H           -1.09608297514685       -2.52910336328121        0.91411443426884
H           -3.86334114914372       -2.38653948183693        0.82768315128095
C           -2.18199583100242       -0.89172716633423        0.31732142492586
H           -1.65047089923767       -0.00508595276526        0.68945393470374
C           -1.74649890512321       -1.16374282324351       -1.12348684322998
C           -3.67311968734576       -0.59052237585883        0.32074887723527
H           -2.27828537285422       -2.02649698241450       -1.51997249100545
H           -1.96186777221183       -0.29484273269336       -1.73842631129254
H           -0.67795979749065       -1.36403770743655       -1.16439252317824
O           -4.45903204190467       -1.64275662678307        0.59900341775297
N           -4.05834817272229        0.57431313185876        0.04669188597057
H           -5.21632728587276       -0.39535383115585       -1.99639021213918
C           -5.45726494382042        0.94452686672906       -0.02105774902423
H           -5.77680241151869        1.23559985809386        0.98484663623006
C           -5.56940873760577        2.15202898963906       -0.96707681948154
C           -6.36155849407983       -0.17183390154889       -0.48647235909852
H           -4.93501747551752        2.94269503140046       -0.56476833715612
H           -5.15779288739736        1.87300807520919       -1.94162452510605
C           -6.99794323416813        2.67187827329332       -1.15800168326177
O           -6.04009775077044       -0.76636098843450       -1.65434812107172
H           -7.62316930243595        1.85502620326290       -1.53557033387902
C           -7.60006043724114        3.17069345382032        0.15253488449617
C           -6.99283883773160        3.79481595031450       -2.19437973750015
H           -6.96394842803613        3.93374845273295        0.59620578806522
H           -8.58073814222799        3.60365868865980       -0.02882468172440
H           -7.71964802946174        2.35606374536651        0.86091778597238
H           -6.59141135102986        3.44648645841696       -3.14361740296078
H           -8.00304275312595        4.15845203803232       -2.36474653962427
H           -6.38262755456595        4.62610870805916       -1.84766296182972
N           -7.38428288991525       -0.46433437563690        0.18631756383201
H           -8.59184864261721       -0.05151501113898        1.46818709696526
C           -8.30353521833482       -1.49545315392326       -0.24110425526570
H           -8.49002605279098       -1.45859027038494       -1.32184731857970
C           -7.78511069193417       -2.89013400638306        0.12623066158338
C           -9.62518980753410       -1.25995263375986        0.50256629175323
H           -7.56383826130207       -2.93285275474707        1.19054833313465
H           -8.54173247900128       -3.63156750727704       -0.11437463292856
H           -6.87551522335924       -3.10061232996749       -0.42991469781399
O           -9.52080205013028       -0.38168065300175        1.49350861963888
O          -10.64387574441402       -1.83168440374235        0.22971479983191
