42
 energy: -62.486132253602 gnorm: 0.000630654996 xtb: 6.7.1 (edcfbbe)
N           -1.48176286560952       -1.62192703479746        0.98499978310211
H           -1.22766682860681       -1.02807804693191        1.76750656150038
H           -0.66073320226802       -2.15020775853119        0.71467976657020
H           -3.36110706383997       -1.94376236730160        1.34575723681037
C           -1.97927403882650       -0.82244986751581       -0.13191101045261
H           -1.42590174266562        0.11281222714661       -0.29424770523600
C           -1.94555139160632       -1.65105973777722       -1.41816968559489
C           -3.42579189093251       -0.47596096311846        0.17838621611490
H           -2.53151580543761       -2.56020425294976       -1.29649887518937
H           -2.34927483807829       -1.06862118552450       -2.24155250566874
H           -0.92191479340039       -1.92851841335417       -1.66076493690651
O           -4.03954220625519       -1.31165223950850        1.03051174899297
N           -3.95781805914819        0.52621172381365       -0.37116724373157
H           -4.94194846629983       -1.04278528943794       -1.61668434441973
C           -5.35876852357009        0.82678451972085       -0.15171566219621
H           -5.51120687867277        1.13144525100838        0.88916229179860
C           -5.71819110846861        1.98874639786702       -1.09584498887315
C           -6.25825365171133       -0.36016594086613       -0.41954449824766
H           -4.98041534865737        2.77394459825733       -0.92361760043263
H           -5.59017305381403        1.64003755919562       -2.12366032842947
C           -7.12829835527648        2.55996173158701       -0.93024625561173
O           -5.82303386755795       -1.28531137510049       -1.29720136670830
H           -7.85320102859218        1.75323961051574       -1.07395232753443
C           -7.34162098422839        3.16321832160284        0.45555124464024
C           -7.37149037775668        3.62188167210526       -2.00207293286579
H           -6.61450900250821        3.95099349124449        0.64240419733866
H           -8.33825647518477        3.59173588742141        0.52564558539872
H           -7.24508033768424        2.40929994598641        1.23170686271843
H           -7.25001970266050        3.20235755758361       -2.99809398969316
H           -8.38058504709868        4.01756496878037       -1.91952110328268
H           -6.66920062983954        4.44513047804961       -1.88806936636456
N           -7.41635516956161       -0.37032092729303        0.07589212850150
H           -8.79242229376067        0.51465930704963        0.87592787090393
C           -8.35712414244251       -1.42653432129916       -0.22203010192151
H           -8.35243873009249       -1.69026685378209       -1.28784176773813
C           -8.06516075852334       -2.68655480905350        0.59978942705078
C           -9.75410860116805       -0.91182007465415        0.15307448615225
H           -8.02326312160812       -2.43631176413968        1.65784719224171
H           -8.85399539681570       -3.41497478057676        0.43470876519682
H           -7.10980231202463       -3.10897079231639        0.29905466808913
O           -9.73686294072155        0.23884921936073        0.81495573631715
O          -10.76255022380311       -1.50444149504609       -0.11421805129912
