42
 energy: -62.486133504269 gnorm: 0.000480282861 xtb: 6.7.1 (edcfbbe)
N           -0.73363054712393       -0.19412659852605       -0.39901052500865
H            0.05262334570173       -0.65084264804472       -0.84416951362542
H           -0.54481440248811       -0.16230776213866        0.59908951312134
H           -1.79861223144970        1.36268073364055       -0.56951367751560
C           -1.97615462475661       -0.92340021869232       -0.64558275346869
H           -1.99592004164532       -1.17855629832613       -1.71348785512126
C           -2.13795638672144       -2.19733443416634        0.18085905959144
C           -3.12874894822525        0.05307196957993       -0.40728186703445
H           -2.09068675988338       -1.96120506602369        1.24196029767024
H           -3.10287717075079       -2.64879271551915       -0.02292148244185
H           -1.35000699256958       -2.90834185850642       -0.05946855526979
O           -2.77118698322673        1.34430624879037       -0.44347677566881
N           -4.27248708451951       -0.42108305218778       -0.19557338630992
H           -5.25963426248186       -1.29478904828294       -1.72155587500309
C           -5.51195480644016        0.30086796627147       -0.02519215762373
H           -5.68660438901639        0.41643093751873        1.04886287950554
C           -5.59798236127899        1.67721373159452       -0.71300677846835
C           -6.58869133758763       -0.60605241062555       -0.59062967236709
H           -4.80776264430256        2.31220039353926       -0.31266798066066
H           -5.40381170145941        1.53649540353274       -1.78062877926202
C           -6.94274082241086        2.39075112740918       -0.53901674892121
O           -6.22681105408748       -1.35701186887647       -1.64344836260602
H           -7.74216874553051        1.74283622385594       -0.91074697281258
C           -7.22475827934529        2.72114708913455        0.92436875073596
C           -6.93909016444057        3.67413711168209       -1.36881735294073
H           -6.43410623970211        3.34980652458683        1.32950611047743
H           -8.16712752108611        3.25619250093467        1.01062030270358
H           -7.29468085002368        1.81878223633353        1.52537102599510
H           -6.77073615326015        3.45525446676854       -2.42087993578419
H           -7.89311786371730        4.18690457549499       -1.27565998341116
H           -6.15327053080836        4.34510644778232       -1.02760984272031
N           -7.72986436054474       -0.63292156972559       -0.05809265474582
H           -9.01003731963289        0.27788383946161        0.86331262266212
C           -8.79366963492029       -1.46175925242328       -0.58104615056064
H           -8.77726434429402       -1.51680654422457       -1.67692400618239
C           -8.71494894088057       -2.88243562285840       -0.01205013928286
C          -10.12374667194261       -0.83365411843370       -0.13916575975776
H           -8.68314853628157       -2.84433249789578        1.07483604232706
H           -9.59065555598826       -3.44400718959875       -0.32471827147826
H           -7.81738487855596       -3.37660737087534       -0.37546036655844
O           -9.97972804074481        0.15713247283794        0.73260660891796
O          -11.19023442075014       -1.21485969180673       -0.53465402346012
