42
 energy: -62.486133515498 gnorm: 0.000479572999 xtb: 6.7.1 (edcfbbe)
N           -0.88724164675164       -0.92698453731550        0.23208044403311
H           -0.49358995225323       -0.05334111566202        0.56484841078859
H           -0.13261936731932       -1.48018120921961       -0.15482331977784
H           -2.34584209169826       -1.23202509088401        1.40315782588945
C           -1.92113632592039       -0.68087859129311       -0.77370971207987
H           -1.69599000173685        0.15518784991154       -1.44834279681256
C           -2.15609415523942       -1.94280831199837       -1.60466131144188
C           -3.20121163695833       -0.35875684142931       -0.02546348258100
H           -2.38665488746365       -2.78488570388626       -0.95526309648963
H           -2.98866628980252       -1.77985083661312       -2.28222293161982
H           -1.26927645587760       -2.18218786090025       -2.18739246699024
O           -3.24275280542566       -0.86803107631888        1.23719858014786
N           -4.09889669837229        0.31057092220654       -0.58353105060595
H           -4.98854121365479       -1.45686988391527        1.22399559354406
C           -5.36922394402222        0.63746906918147        0.03645304743029
H           -5.20538427766034        0.94098662894170        1.08457549297690
C           -5.97945444346096        1.79009253170322       -0.76263104866822
C           -6.26332827325737       -0.58664160999885        0.07748848009425
H           -5.19306343105836        2.52892779403632       -0.92526745054801
H           -6.26872715351803        1.39528429749276       -1.73587121978968
C           -7.18099031794141        2.46040543211657       -0.08796653495181
O           -5.86296581009507       -1.62385975948229        0.83304584495527
H           -7.84205325810133        1.68058027502938        0.30071153126079
C           -6.74187310904713        3.35465001604933        1.07028320410084
C           -7.95372103153785        3.28697589696448       -1.11429115769415
H           -6.09005033102999        4.14796789227620        0.70967847932888
H           -7.60739044514673        3.81286175119052        1.54331678872131
H           -6.20610040470263        2.78891450382065        1.82859393027921
H           -8.32581861291288        2.65820504938946       -1.91915133007416
H           -8.80284813733616        3.77850116234333       -0.64543178390005
H           -7.31047333907779        4.05187874117107       -1.54407498573788
N           -7.34153609771852       -0.58944989687984       -0.57319626626443
H           -8.38173541532191        0.14543630314490       -1.84134347405390
C           -8.24379073625966       -1.71644816733929       -0.57392084308150
H           -7.71247301442396       -2.67052622898084       -0.68065904358235
C           -9.09214832743213       -1.76232674965369        0.70222717330942
C           -9.18789405133276       -1.53034083016200       -1.77213325882798
H           -9.60406725053133       -0.81214673119998        0.84252760950866
H           -9.83064005045589       -2.55406798269733        0.61416916691737
H           -8.45631070861494       -1.95408854222464        1.56295199510875
O           -9.09888819574615       -0.32873272721363       -2.32820480464557
O           -9.94472756673968       -2.38149167609939       -2.14881514286141
