42
 energy: -62.486133504744 gnorm: 0.000481476286 xtb: 6.7.1 (edcfbbe)
N           -0.77295657734614       -0.01371215269135       -0.75537921017876
H            0.00901673776590       -0.44444297634167       -1.23330346950479
H           -0.51502631231777        0.09422261456093        0.22163463318116
H           -1.97710796239716        1.44840514472381       -1.00444347862956
C           -1.97539737960961       -0.83714445406487       -0.86572298590009
H           -2.07277687480286       -1.12671156915797       -1.92049779272097
C           -1.96258195619939       -2.09582915224575        0.00009573631174
C           -3.16589587163123        0.06995123388697       -0.55774816185157
H           -1.96719388663812       -1.82888314177520        1.05476002191946
H           -2.83703746359844       -2.70291388675222       -0.20869729321002
H           -1.07174818627844       -2.68442578245752       -0.21166038055541
O           -2.92468607343960        1.37192887252683       -0.76642538596772
N           -4.22973192348027       -0.45698739413669       -0.15019381955381
H           -5.11210467038536       -2.08204527586823        0.24425951343133
C           -5.49944875680881        0.17623484041490        0.13510989984541
H           -5.51273794839408        0.36877025625167        1.21858052440961
C           -5.84891146950007        1.46930580639995       -0.60940460305240
C           -6.52157064073279       -0.92388072510016       -0.12139082457121
H           -4.95856695019257        2.09137209252166       -0.68410106644712
H           -6.16196364636996        1.20240829104443       -1.62019521883080
C           -6.95514804528508        2.27848757663056        0.08052914728034
O           -6.07892824390432       -2.16604583285840        0.11879875155888
H           -7.73637385794420        1.58967899817551        0.41353467565405
C           -6.41164290711000        3.02890527520351        1.29521849320253
C           -7.56277374506706        3.27194824025307       -0.90791791888780
H           -5.64602883139870        3.73940116957540        0.98975232112860
H           -7.21050264344474        3.57735450447273        1.78893974505608
H           -5.97425833518109        2.34771961292930        2.02155846358126
H           -7.99936452184342        2.75781014400310       -1.76048213538524
H           -8.34355233590890        3.85677728752661       -0.42750703723189
H           -6.79878770440820        3.95575701316439       -1.27253236845857
N           -7.67423249699389       -0.64664197952754       -0.54542524849321
H           -8.76023880263216        0.49936967420698       -1.43328762026338
C           -8.65327331962028       -1.67638889984062       -0.80845187864296
H           -8.20216577044790       -2.56685426081177       -1.26525081594057
C           -9.38296338427194       -2.09438509532858        0.47264914659066
C           -9.68168884807853       -1.08362450156449       -1.78282654416221
H           -9.80284103575195       -1.21859954978987        0.96364510922716
H          -10.18621716370861       -2.78099824842437        0.22093906793668
H           -8.68742622177719       -2.58250577781818        1.15088298559780
O           -9.54360079819673        0.22397456044126       -1.96658569183624
O          -10.53575443964164       -1.73878838235301       -2.31252222462713
