42
 energy: -62.486132261341 gnorm: 0.000628607053 xtb: 6.7.1 (edcfbbe)
N           -2.12489643276258       -2.41147619714771       -0.85736390062852
H           -1.16124100316677       -2.72311465720090       -0.86452741006673
H           -2.45648819451585       -2.41723519352318       -1.81847623509741
H           -3.79677014124292       -2.70035990087923        0.01714677503160
C           -2.23263929504269       -1.06004486406192       -0.30989548943800
H           -1.67794160302527       -1.04864512931579        0.63757296297155
C           -1.69473741297097        0.03890293979317       -1.22316493115275
C           -3.70686366651634       -0.83017811467378        0.03069463012661
H           -2.22555139686670        0.02625302812888       -2.17298080709658
H           -1.85444793000945        1.00407798894046       -0.75570064083040
H           -0.63132613692064       -0.10373473410269       -1.40716791505060
O           -4.39092182296232       -1.96002993621703        0.25907854077302
N           -4.09638124241908        0.35507513587436        0.15521425963790
H           -7.04006017266218        0.89785152518247        2.16878371579931
C           -5.42002614024268        0.87452056000820        0.34068386615611
H           -5.34564049193986        1.54349165051951        1.21120044646835
C           -5.73306645420869        1.71942780769556       -0.91350598099948
C           -6.56330783771343       -0.09252152168496        0.55037534886491
H           -4.87868871166324        2.37175357336792       -1.09841802432011
H           -5.81707549760545        1.01861126237760       -1.74516742650891
C           -7.01629315276485        2.55089692346511       -0.81679382751924
O           -7.37167490035796        0.15386100995081        1.65239768255322
H           -7.83505636550930        1.90787441289158       -0.47490549521739
C           -6.86508295259504        3.72171537444043        0.15294039614540
C           -7.38392172750649        3.07512969291051       -2.20370651067865
H           -6.07488171108317        4.38868033070057       -0.18506025717050
H           -7.79204824824241        4.28816745278225        0.20588657675511
H           -6.61904363028160        3.38796526849717        1.15861649632023
H           -7.55646835268931        2.24959184029158       -2.88946680456594
H           -8.28973969892125        3.67484219241217       -2.15646452514148
H           -6.58128079660157        3.69316144071786       -2.60049121460193
N           -6.73123555100149       -1.03675502307410       -0.24754803038322
H           -8.93731047000332       -0.26077173877228        0.85617614887457
C           -7.73674506686580       -2.06366462271044       -0.19693415174609
H           -7.45512278867604       -2.78150120298469       -0.97598473150928
C           -7.82015886377526       -2.79372514216354        1.15001846989466
C           -9.12866089458737       -1.53440233375592       -0.56941672506529
H           -8.18497976865538       -2.13870292010330        1.93834959308298
H           -8.48823791861702       -3.64673114799082        1.06107536552447
H           -6.82636622873888       -3.14205516737746        1.42134550909961
O           -9.58142023830277       -0.52111769594136        0.16999700417445
O           -9.78239035196351       -2.00710970196429       -1.45547763757236
