42
 energy: -62.486132301718 gnorm: 0.000620776725 xtb: 6.7.1 (edcfbbe)
N           -2.21378136586940       -1.50481154851073        1.52687716190135
H           -1.73428176589389       -0.69829815634134        1.91270602980444
H           -1.55068748051163       -2.26860444884273        1.47446984941272
H           -4.05016411214219       -1.21783489230186        2.10802000253350
C           -2.76286797008455       -1.20006456270781        0.20808577052424
H           -2.08790461001186       -0.62218130190829       -0.43807799321259
C           -3.14713198128833       -2.50039196647462       -0.50005665296964
C           -4.03303249147092       -0.39570863846928        0.42447177563920
H           -3.80954501484671       -3.08637233843917        0.13338702731127
H           -3.65583637870588       -2.27203891886786       -1.43177938986751
H           -2.25973000642795       -3.09070471630566       -0.71824618258385
O           -4.64120312287826       -0.62468411579008        1.59803561407996
N           -4.40619049537684        0.40446998147294       -0.47027937337012
H           -7.11067225526538        0.75874678295203       -2.38102003297804
C           -5.67549813457092        1.10754758798423       -0.39293497580516
H           -5.81621169499055        1.50097212148751        0.62419238020750
C           -5.63883160060454        2.25625304121110       -1.40172130383327
C           -6.78624814911208        0.09356392019136       -0.60873861418472
H           -4.73087951030757        2.82779874317267       -1.20051955469622
H           -5.51709270856887        1.84681346517580       -2.40982006423090
C           -6.85186506325842        3.19609021422411       -1.33475913486070
O           -7.43335331582252        0.06437659631230       -1.79244152097320
H           -7.77353475375548        2.60666039613240       -1.26232971209070
C           -6.77809471251070        4.10097852468049       -0.10661394141349
C           -6.91961221629435        4.04699402023137       -2.60277102095333
H           -5.88089939550370        4.71531288048301       -0.14202568200569
H           -7.64300122884752        4.75931701546116       -0.07150277591608
H           -6.76121459870157        3.51735680281148        0.81002893611757
H           -7.02744004137704        3.42641750385153       -3.49054393654149
H           -7.76760219013436        4.72618860221335       -2.55973100552950
H           -6.01270080578335        4.63850727910072       -2.70771203054050
N           -7.01022762056466       -0.73383913819738        0.31046078644640
H           -6.55539155113674       -1.36945773196692        1.96873082774714
C           -7.96911155575397       -1.80470375581685        0.21173792028437
H           -8.96635644967862       -1.42988808991170       -0.05065988260216
C           -7.56104058797526       -2.87574749061561       -0.80689887776802
C           -8.03503936508001       -2.46615037076571        1.59862772459333
H           -6.55538922327826       -3.23046085755074       -0.58889195861581
H           -8.25415126770759       -3.70980289325287       -0.74331664756879
H           -7.58089105443552       -2.46356700151239       -1.81209625926056
O           -7.08230321380261       -2.06976565277999        2.42882047481865
O           -8.85918017671788       -3.29131276094356        1.88577153491233
