42
 energy: -62.486133514368 gnorm: 0.000479039880 xtb: 6.7.1 (edcfbbe)
N           -0.97395235781733       -1.00951128686290        0.59605595112675
H            0.00824920086580       -0.90299352822266        0.37443542770565
H           -1.14540941814984       -1.99959419404209        0.75156261191682
H           -2.27340330818805       -0.22138835420874        1.75502215217267
C           -1.81789529411121       -0.51809885111378       -0.49289526573324
H           -1.38151252824010        0.42162892898473       -0.85316063926236
C           -1.97280367706413       -1.48142724008465       -1.66830774197052
C           -3.17114042773826       -0.15919660432527        0.10523073513117
H           -2.35147805241947       -2.44189902451832       -1.32238912809501
H           -2.68199303651242       -1.06813333935941       -2.37769611453329
H           -1.01601415140335       -1.63804364539865       -2.16155199522222
O           -3.18739711128821       -0.04529557922016        1.45010771873960
N           -4.15643021188444        0.02316859846870       -0.65429251101761
H           -4.88022174483368       -1.80318328411770        0.52333812581034
C           -5.44604945865456        0.43653922251792       -0.14447955819463
H           -5.35725973103554        0.80597202377071        0.89117812073249
C           -5.99707561698779        1.54441436487755       -1.04876861728881
C           -6.36370645514157       -0.76781004393749       -0.08623559760190
H           -5.15854625568912        2.16953903192001       -1.36129024570820
H           -6.41306592054116        1.07620367429204       -1.94042204045428
C           -7.05723026417230        2.41820032858495       -0.36814742885316
O           -5.82742218602323       -1.91804941478114        0.37018484511143
H           -7.73436958806143        1.76684589043974        0.19169945850230
C           -6.41505067973624        3.40901352670033        0.60153614175102
C           -7.86263482322182        3.17577196362476       -1.42209173386780
H           -5.76096331465538        4.09323226491790        0.06461462538321
H           -7.17999909916119        3.99369231767784        1.10713954249678
H           -5.82617121155886        2.89812269738869        1.35942768431466
H           -8.37360989029066        2.48914937695794       -2.09227033863650
H           -8.60994193354354        3.80687604403639       -0.94705558553979
H           -7.20618597235839        3.81012518729790       -2.01415118872594
N           -7.57189298202883       -0.65511177704294       -0.41707151832085
H           -8.84132666643272        0.24632571296210       -1.34268216282657
C           -8.49535074014005       -1.76375761835315       -0.35107422062375
H           -8.04206422745430       -2.69893491632233       -0.70369434369344
C           -9.01984137319857       -1.97441019249127        1.07348676007339
C           -9.68407735712978       -1.41536578785544       -1.26057720701774
H           -9.43180767414214       -1.04385157998837        1.45893161820734
H           -9.79977894358037       -2.73048409378620        1.06018767957899
H           -8.21063176852430       -2.29988586368079        1.72240732249678
O           -9.66725259732578       -0.16193471766271       -1.69628426134679
O          -10.55148241362115       -2.19848610878755       -1.53102206444233
