42
 energy: -62.486133505341 gnorm: 0.000481058115 xtb: 6.7.1 (edcfbbe)
N           -1.25401705939288       -0.37560612999890       -1.74149877883646
H           -0.62918738968766       -0.99308012542143       -2.24521890444040
H           -0.70700670723494        0.10233921653581       -1.03106093054879
H           -2.63545832721541        0.90172598095152       -2.12709293326973
C           -2.33866232174042       -1.12682204871159       -1.11191932556390
H           -2.74702965465857       -1.80468986790337       -1.87281295098742
C           -1.92542341738118       -1.93863733286554        0.11255526238162
C           -3.45042336981990       -0.12967700479563       -0.79209389679755
H           -1.52257212153037       -1.28104426832322        0.88010193632993
H           -2.79233514363965       -2.44879012452733        0.51722478014420
H           -1.17004610408456       -2.67407050923209       -0.15759151796422
O           -3.43841049848597        0.96346525173853       -1.56975327236199
N           -4.26057244977972       -0.41670807539188        0.12206318932495
H           -5.83235373575120       -1.51352425276875        2.01867489198408
C           -5.42373189396859        0.33746508419545        0.54043837731348
H           -5.26191811530167        0.56454615341359        1.60468498892473
C           -5.76541195674062        1.62529674143785       -0.21308153394428
C           -6.52894716496389       -0.69665775911401        0.43826303923539
H           -4.90830929229228        2.29795990687346       -0.16670503655401
H           -5.93591559761283        1.36995732904175       -1.25845051956550
C           -7.00134973908187        2.34041862348216        0.34561791561471
O           -6.59391023796221       -1.60612438064717        1.43275952058271
H           -7.79391207705182        1.60133178069527        0.50036086436594
C           -6.70194895352450        3.02640061377763        1.67729878223224
C           -7.49462894844964        3.37112712699846       -0.66810885442199
H           -5.90609686790928        3.75846580669843        1.55494777887175
H           -7.58677988474113        3.54278253497454        2.04274084934028
H           -6.39648660023180        2.30996650941271        2.43613284853962
H           -7.76936465408270        2.88922993175909       -1.60306806683434
H           -8.36601348386824        3.89743712162791       -0.28512110966748
H           -6.71535437797536        4.10181175275514       -0.87365153308462
N           -7.25282885374775       -0.74760156622655       -0.58873399114496
H           -7.59276175987469       -0.21401785931303       -2.27501493991263
C           -8.25399117036695       -1.77112003170703       -0.77627963394614
H           -7.87277024254527       -2.76724781091159       -0.51778970142605
C           -9.51231125167471       -1.49328392062962        0.05371627281360
C           -8.64005601335982       -1.75308479137624       -2.26322054279216
H           -9.88498933086066       -0.49321424134670       -0.15955684854962
H          -10.27824315729155       -2.21979990273190       -0.20228391587558
H           -9.28096515816663       -1.56876470239693        1.11327275700353
O           -8.14659223592581       -0.71224747748380       -2.92254554727380
O           -9.33710394048840       -2.58793908481786       -2.76926460771594
