42
 energy: -62.486133507167 gnorm: 0.000480599051 xtb: 6.7.1 (edcfbbe)
N           -1.40466660546972       -1.41592396924035        0.50888736733569
H           -0.84028305900913       -0.61615700375711        0.77554770856484
H           -0.77581451945888       -2.16015618772613        0.23217256813443
H           -2.98771646315825       -1.21322533000342        1.59893590129154
C           -2.30610389447355       -1.06800173002826       -0.58992959843583
H           -1.85521505832333       -0.41478965165564       -1.34863734243821
C           -2.81900885012262       -2.33959258881183       -1.26735222484025
C           -3.49563330034056       -0.34885357650668        0.01278581100636
H           -3.26100063406060       -3.00513383053026       -0.52837255366499
H           -3.57243129381274       -2.07595527517762       -2.00351409456075
H           -2.00301686293859       -2.86036587037995       -1.76390803731767
O           -3.73566532921138       -0.64908673100678        1.31248804387191
N           -4.18393361718973        0.42766830552212       -0.69217097445944
H           -5.82159679224017       -0.07806830891859        1.98080465566971
C           -5.37283891288900        1.05466504395704       -0.14316728744739
H           -5.12565066190559        1.56154914866684        0.80178034869873
C           -5.88689760123215        2.05897090208067       -1.17669812593781
C           -6.40059760404494       -0.02104334547962        0.12891915223857
H           -5.09006911720575        2.77826659461629       -1.37200803367375
H           -6.07172630635419        1.49494746579899       -2.08990851921980
C           -7.16539919609882        2.79377499021950       -0.76477778826923
O           -6.57836946218729       -0.36756622608482        1.45310569611955
H           -7.93462736336091        2.05019784023812       -0.53088600375810
C           -6.95016990123410        3.68147816953811        0.45992288536615
C           -7.65898337234738        3.63823054697760       -1.93774733498220
H           -6.13343058751709        4.37903078560920        0.28431663496592
H           -7.85043368991863        4.25464636917269        0.66934767516039
H           -6.71919003750598        3.09325850853071        1.34480280008255
H           -7.84012947300192        3.01164739479863       -2.80696765192739
H           -8.58650198257498        4.14427802160834       -1.68073385701849
H           -6.91820392212567        4.39024599888242       -2.20195967497193
N           -6.98148873525229       -0.57086240170245       -0.83186156857672
H           -8.37099056870195       -0.56705089373362        1.33978977063725
C           -7.91850110877113       -1.66088827308866       -0.77104857678841
H           -8.08541675423080       -1.95637843188251       -1.81340248456149
C           -7.42500693772657       -2.87966352485277        0.02223535978645
C           -9.28712575784051       -1.23875312928609       -0.21336774996998
H           -7.31468682589242       -2.64958788947325        1.07975152274099
H           -8.13481872884268       -3.69539068856541       -0.08976409997349
H           -6.45928853982906       -3.19402510541165       -0.36804180180161
O           -9.27408487412093       -0.64947616519713        0.98100974817763
O          -10.30947695447287       -1.44888577770716       -0.80144312260633
