42
 energy: -62.486133512808 gnorm: 0.000479900364 xtb: 6.7.1 (edcfbbe)
N           -2.00676673620116       -1.57443928411502        1.30210415614828
H           -1.53560078541814       -0.79434416024644        1.74808352911230
H           -1.33606752252537       -2.32615932729489        1.19947633080752
H           -3.84601782817128       -1.31407228582035        1.90410646519167
C           -2.54759525420590       -1.17865255710864        0.00395581327240
H           -1.87155376285659       -0.54735221143835       -0.58966286243471
C           -2.91000778345127       -2.42516472083679       -0.80559373131907
C           -3.82415192302460       -0.40142801781876        0.27055209127278
H           -3.59177523844234       -3.05453984557597       -0.23786471887811
H           -3.39086290131050       -2.13103267174326       -1.73349212600318
H           -2.01577561503559       -2.99922774911015       -1.03886443717022
O           -4.43798410647327       -0.70047723041289        1.42203010311981
N           -4.22821123202826        0.43286348993424       -0.58193761347488
H           -6.18202555162695        0.22918153721409       -2.52653350629876
C           -5.50124458960068        1.11064812775552       -0.38407504705622
H           -5.61329178943012        1.41389962772048        0.66339400266541
C           -5.56674403480668        2.32503802360942       -1.31298971097207
C           -6.56190823988557        0.07156060587706       -0.66252368986794
H           -4.84878276554833        3.06123314289440       -0.94731278843078
H           -5.22845067636094        2.03062501359799       -2.31107639398761
C           -6.95648415844897        2.96713548277199       -1.40182204314952
O           -6.75922728437178       -0.28630504365308       -1.94841568299034
H           -7.67292321567545        2.22498916739146       -1.77253753134251
C           -7.43872603714292        3.45142829744972       -0.03637649918764
C           -6.91628281764384        4.13097185160676       -2.39105101781459
H           -6.71120259978676        4.12887801906219        0.40550977305431
H           -8.38202536599010        3.98255100373617       -0.14032444307424
H           -7.59504633508767        2.61535052765030        0.64003423100192
H           -6.58499611058274        3.79715323395597       -3.37223237659684
H           -7.90328060268493        4.57438144743418       -2.49717576228540
H           -6.23096672193316        4.90006198316654       -2.04140171569377
N           -7.13009862215391       -0.48441229871329        0.31167078588439
H           -7.30600403352638       -0.68546046432108        2.10112697987040
C           -8.06497713879672       -1.57471353767885        0.16230137909249
H           -8.86499611717057       -1.33087942699969       -0.54707781833447
C           -7.37639389659348       -2.86897323422768       -0.28751228603352
C           -8.67680516953252       -1.82328620323716        1.55020645887832
H           -6.55868689468186       -3.10408410310795        0.39137919732010
H           -8.09631433714092       -3.68239710974867       -0.27336970222063
H           -6.98163107969240       -2.75130534454069       -1.29337243570862
O           -8.02075929375661       -1.21564403744706        2.52942494664272
O           -9.63354507554503       -2.52562552137918        1.72817482642750
