42
 energy: -62.486133518092 gnorm: 0.000479265123 xtb: 6.7.1 (edcfbbe)
N           -0.98779573419449       -0.77392315384120        0.19642102444765
H           -0.12980607289565       -1.03251227500749       -0.27599677494818
H           -1.12299182665882       -1.42974100092906        0.96142514704603
H           -1.88115700887205        0.77788220316803        0.91400982136390
C           -2.12828469233550       -0.83961794760594       -0.71783388535457
H           -1.83248015600870       -0.33390739636419       -1.64591508504184
C           -2.60876582437177       -2.25139026404082       -1.04541555525408
C           -3.24591022618601       -0.00580346960724       -0.10913523247103
H           -2.85437450197222       -2.78584123796433       -0.12953934055117
H           -3.50440589734660       -2.18916610210628       -1.65408706407997
H           -1.83956780792453       -2.80323787714721       -1.58184158639496
O           -2.84394885967632        0.90670651246810        0.79983261362038
N           -4.43058245614180       -0.19375678134299       -0.47986391864906
H           -6.17149329739198       -0.61852172917323        2.01016132524349
C           -5.51607891350000        0.61755454662367        0.03094639316976
H           -5.27005765622157        1.04748014634823        1.01538361003036
C           -5.77619269820701        1.74731241201868       -0.97533019394698
C           -6.68379544388846       -0.32999111733431        0.16863116571280
H           -4.90705482063196        2.40843067092143       -0.94759598851510
H           -5.83100845915504        1.28921662412103       -1.96290559878362
C           -7.04837709983934        2.56513167293423       -0.73433831416234
O           -6.84101619988790       -0.91581410411666        1.38176117534816
H           -7.90893602321275        1.92948400136586       -0.96765287339337
C           -7.16827002684021        3.05322800349302        0.70756329367341
C           -7.06589761483472        3.75377859244630       -1.69448140797882
H           -6.26680401351343        3.58521802203251        1.00506570377241
H           -8.01250270729161        3.73243795243569        0.80413375756249
H           -7.32849374661770        2.22592630554865        1.39491418359669
H           -6.96771446007701        3.41475039538033       -2.72270240632084
H           -7.99855300797214        4.30538438091430       -1.60182003125865
H           -6.24388673785971        4.43175033493778       -1.47501695065266
N           -7.41595027783527       -0.59283815349185       -0.82015713225636
H           -9.13988317139288        0.55541527374985        0.04632869558209
C           -8.46665911743314       -1.58687372412758       -0.72731189859939
H           -9.04572914719574       -1.49112154941777       -1.65890304338754
C           -7.91943855569271       -3.00893416916961       -0.62454231977981
C           -9.44525493111620       -1.30216530348497        0.41836966585807
H           -7.34158443514907       -3.11599402949517        0.28904660103119
H           -8.74677274537979       -3.71205508174166       -0.59716593823114
H           -7.28230691013109       -3.22072044849170       -1.47903574070419
O           -9.68403623864197        0.00273288037214        0.62945360090355
O          -10.00237173973166       -2.14791982375021        1.05407558857766
