42
 energy: -62.486133513019 gnorm: 0.000479917333 xtb: 6.7.1 (edcfbbe)
N           -2.26259011190585       -0.42951151198543       -1.81528528000790
H           -2.31220858225994        0.52405414991040       -2.15958814459830
H           -2.26492201643380       -1.04985613550895       -2.61725534744871
H           -1.33515104776744       -0.33520371046578       -0.09742277744665
C           -3.39519004927346       -0.72332650399550       -0.93516034181104
H           -4.36074079999112       -0.40249641797092       -1.34874256343560
C           -3.42314282108877       -2.23164087758549       -0.67613647831811
C           -3.10451067931001        0.02001708106729        0.37559844644202
H           -2.45946553094306       -2.56164241409501       -0.29323439577121
H           -4.19156143987606       -2.49183351544722        0.04486817416606
H           -3.63165754561988       -2.76247098469566       -1.60292779630475
O           -1.80811641294131       -0.00028545302514        0.69248716725390
N           -3.87784197577873        0.64069770560271        1.15544379783543
H           -5.13724043590431       -1.25469664284290        2.22620469747341
C           -5.30954928456766        0.78562831637308        1.02252873796558
H           -5.65175456226810        1.07368140943248        2.02793876266114
C           -5.64865117875200        1.92206593014587        0.04689600039531
C           -5.98737112306923       -0.51838154422579        0.67445164966806
H           -4.96441295020367        2.74682729655693        0.25499526405230
H           -5.45570931197542        1.57361859165844       -0.96870290957958
C           -7.09546449054046        2.41940265211256        0.14911924495798
O           -5.75810411852126       -1.53420885844083        1.53912985869340
H           -7.75721823442900        1.55021711704870        0.20775465465907
C           -7.30248962090230        3.28227179736916        1.39176515712237
C           -7.45245921564137        3.22104289266252       -1.10184126584407
H           -6.66151872191690        4.16037544175104        1.35330373937934
H           -8.33598491412724        3.61543298719842        1.45086860084549
H           -7.07417945102027        2.73191447566099        2.30066782296100
H           -7.36562945982348        2.60905385441151       -1.99680135230989
H           -8.47385176228057        3.58833248862462       -1.03876228896869
H           -6.78801492926257        4.07645479337764       -1.20409234258271
N           -6.69761877930015       -0.63222449345777       -0.35667495666454
H           -7.19698206479585       -0.00170135329524       -2.01366798172836
C           -7.31538617591415       -1.87593041434007       -0.75060753390030
H           -6.73251693031351       -2.75557897554705       -0.45261285701981
C           -8.72926821385044       -1.99010116614232       -0.16954120373130
C           -7.43202112358919       -1.83528493792037       -2.28073793374587
H           -9.31873464108344       -1.11743750816230       -0.44425605330420
H           -9.20996427933092       -2.88261788763299       -0.56009347961089
H           -8.67680624035425       -2.05444769565679        0.91471435217806
O           -7.37176646736170       -0.60163817393739       -2.77455656672315
O           -7.57833541588728       -2.81189049240678       -2.95932305975114
