42
 energy: -62.486133508936 gnorm: 0.000479696285 xtb: 6.7.1 (edcfbbe)
N           -1.69697928202793       -1.44703460466155        1.20207090138066
H           -0.72725139558857       -1.72145560903375        1.10332314155901
H           -2.21934270641923       -2.26820978128690        1.49524358347732
H           -2.78700418749803       -0.08897568629638        2.00868016252560
C           -2.23360873419148       -0.94430730265309       -0.06129710773799
H           -1.50103630025834       -0.23543562690306       -0.46842788356756
C           -2.52416049402459       -2.02272605274180       -1.10329994886919
C           -3.48478495887813       -0.14255185784719        0.27194571859631
H           -3.24711575229477       -2.73544069484887       -0.71149869420929
H           -2.94357329555772       -1.56402801155215       -1.99207124127931
H           -1.61086635364229       -2.55200213560881       -1.36807664946789
O           -3.56053806179637        0.28563379752271        1.54052356515472
N           -4.33450609011898        0.08211373496888       -0.62814289889581
H           -6.05994448492370       -0.12505713024651       -2.45624703980090
C           -5.54090183903911        0.83802803402307       -0.34225470373881
H           -5.61051497191655        1.11073350180707        0.71629837558644
C           -5.57841863077491        2.09480325296163       -1.22155340649860
C           -6.66071862750652       -0.12459819469390       -0.65946207007673
H           -4.82935167143274        2.79159685161504       -0.83995118149352
H           -5.27713552921083        1.82855379291549       -2.23932617573019
C           -6.94788048163367        2.78318146387920       -1.25752524770676
O           -6.78510368548845       -0.50545531233359       -1.94315028976539
H           -7.68977292476245        2.07711905095654       -1.64783480147537
C           -7.39312759039162        3.22515118934389        0.13415053332820
C           -6.88575825749629        3.98537088100661       -2.19862711431739
H           -6.63793861615845        3.86134679446876        0.59081117099641
H           -8.32097988816900        3.78846440290861        0.06763876750716
H           -7.56447987279943        2.36719334367965        0.77842600569351
H           -6.58311371586898        3.68200367798050       -3.19867189176758
H           -7.85938137954911        4.46410774031613       -2.26765071876024
H           -6.16972495255014        4.71699280536836       -1.83026836134569
N           -7.34446273721100       -0.60449161418542        0.28288525108870
H           -7.93521210757177       -0.51349275372724        1.99354262397367
C           -8.37342118497931       -1.59497601846612        0.05183188960894
H           -8.99693149440235       -1.34202540338577       -0.81460496131397
C           -7.77672103504151       -2.99096835738015       -0.15940080450695
C           -9.25878391315740       -1.63136853826765        1.30648440481052
H           -7.11644146043818       -3.23992395939834        0.66919596502860
H           -8.58043978038505       -3.72039268989897       -0.20615476877686
H           -7.20914717579088       -3.01555303873164       -1.08619158265607
O           -8.76510739659938       -0.93334835664662        2.32191516240026
O          -10.28450823741636       -2.25060140710460        1.36565733648707
