42
 energy: -62.486133520993 gnorm: 0.000479099929 xtb: 6.7.1 (edcfbbe)
N           -1.22249300857988       -0.66785320352639       -1.47984671872671
H           -0.60827241802513       -1.38237155529350       -1.85139272284105
H           -0.69370150533519       -0.13464453936114       -0.79504150468367
H           -2.47963168620335        0.64729365744156       -2.09989357220813
C           -2.39555682664702       -1.26549745955038       -0.84392295527296
H           -2.79761983777343       -2.01210561500987       -1.54046707143066
C           -2.12090403507380       -1.93182235052095        0.50140645746209
C           -3.46095085888060       -0.17652939711649       -0.73161901599457
H           -1.69854390130775       -1.21038265832945        1.19783697022885
H           -3.05358374774533       -2.30007496471955        0.91359887295018
H           -1.42456638085040       -2.75973348321482        0.38226695209540
O           -3.30806079639245        0.82681176735634       -1.61054047945990
N           -4.36327218043005       -0.32222185242412        0.12663560110134
H           -7.02989362167558       -0.11630597870032        2.16809651937828
C           -5.49935817272580        0.53316560791939        0.36446560077285
H           -5.39227743336316        0.86956880168591        1.40710246177257
C           -5.70280378502682        1.74878699289357       -0.55236964276693
C           -6.71331933029083       -0.36933239719520        0.26245237646413
H           -4.81689397244888        2.38272611196752       -0.50694771109690
H           -5.80354464647703        1.37109522296787       -1.56959835921321
C           -6.94302767544208        2.57726796851640       -0.19568652948311
O           -7.45593548720162       -0.54327958493734        1.41536989238704
H           -7.80410908906856        1.90656471627589       -0.09617025003330
C           -6.76099878719212        3.34616714206165        1.11232193871735
C           -7.24129713574134        3.55616849850291       -1.32944906782602
H           -5.91476823002183        4.02573918585134        1.03394319077749
H           -7.65087587710818        3.93247396080154        1.33016432849646
H           -6.58620133331412        2.68071090416072        1.95506101173640
H           -7.43125954680006        3.01897211853820       -2.25494201373041
H           -8.11805063097233        4.15571530163258       -1.09545094347347
H           -6.39708239325906        4.22463036634603       -1.48476060268361
N           -6.97589677881806       -0.90549314612269       -0.83435456959511
H           -9.08309440066235       -0.49118041481368        0.60952726141458
C           -8.05673073886050       -1.80920260370352       -1.13000175849497
H           -7.85645658417941       -2.17741860307097       -2.14285828259505
C           -8.16817355178606       -3.00466570960104       -0.17404374052249
C           -9.41373592083529       -1.09067295665448       -1.18698965507930
H           -8.44084214498539       -2.69020538787029        0.83092705078742
H           -8.92157291860614       -3.69526969863445       -0.54482787385458
H           -7.20932335434819       -3.51598611873308       -0.12760428317458
O           -9.76300301265072       -0.42329193202849       -0.08687058323980
O          -10.12850752820508       -1.14034247810142       -2.14659147144455
