42
 energy: -62.486133512467 gnorm: 0.000479793939 xtb: 6.7.1 (edcfbbe)
N           -0.87857739696991       -0.42655165752388        0.05872616517135
H           -0.06887827864994       -0.91729024792133       -0.30086614697994
H           -0.86364617645401       -0.51470668192445        1.07129691696361
H           -1.79396549274038        1.24949517068493       -0.11673336550466
C           -2.11558307404122       -1.00185458923027       -0.46730931890138
H           -1.98524652619807       -1.10907315575970       -1.55257673095924
C           -2.49763765088433       -2.35389479575116        0.12949801744701
C           -3.21670928798688        0.03381041992218       -0.26037060165752
H           -2.59311872182923       -2.27071432668377        1.21031647136906
H           -3.45500707524988       -2.66947703500202       -0.27152764237470
H           -1.74166575932143       -3.10079556121076       -0.10447323163831
O           -2.77216273427567        1.29573547451910       -0.12848102490997
N           -4.41007722308219       -0.35344928804979       -0.22797713310940
H           -5.81390900337003       -0.39939358450301       -2.29424386392151
C           -5.57097894481913        0.49936022316298       -0.09161949441056
H           -5.74577574525184        0.66739158289188        0.97611121439541
C           -5.50191235502315        1.85029390405381       -0.82588067201502
C           -6.72095389737114       -0.32861027083307       -0.62460737299822
H           -4.77174990209902        2.48384036716228       -0.32211918461242
H           -5.13684972490244        1.68285733208027       -1.84491988403327
C           -6.84857632353157        2.58065055495043       -0.89138024078183
O           -6.65578557761501       -0.68829826602470       -1.92024809043504
H           -7.57653858979541        1.94336530507760       -1.40650771478272
C           -7.38729788654917        2.89556220206415        0.50152922845409
C           -6.68343307043665        3.86940148209137       -1.69564420180632
H           -6.65017543916273        3.45254084170950        1.07648401991904
H           -8.28915666910735        3.49841115250740        0.42500453297338
H           -7.63689712954940        1.98354031498960        1.03677912187535
H           -6.31763461625228        3.65871280149188       -2.69840979059412
H           -7.63539162862861        4.38743805987767       -1.78212093100978
H           -5.97489239297264        4.53277585162934       -1.20410648051284
N           -7.64372443497552       -0.69036727484558        0.15147356670651
H           -8.55781466323388       -0.50071384604947        1.70896963440498
C           -8.74783794017593       -1.50496871626776       -0.30863478093683
H           -9.11409473183415       -1.18217736735721       -1.29106238310834
C           -8.35872068289293       -2.98540385220586       -0.38717402410120
C           -9.88058370862435       -1.35801767353001        0.71717007215950
H           -7.95791708904897       -3.31447137162877        0.56933213954937
H           -9.23857053919011       -3.57523871498232       -0.62832089352274
H           -7.60332764677728       -3.12837204058238       -1.15545836181610
O           -9.50181070580949       -0.75333575474330        1.83740119817127
O          -10.99160481821174       -1.77003280012682        0.53161629169999
