42
 energy: -62.486133510121 gnorm: 0.000480917360 xtb: 6.7.1 (edcfbbe)
N           -1.68537045300762       -1.77458912137938        1.07843586812334
H           -0.68623928499239       -1.93508792586088        1.10550736652044
H           -2.13758937514316       -2.67375460706408        0.93795449772294
H           -3.06535274639841       -0.87795287812391        2.07211188208689
C           -2.04455297865561       -0.86062270122985       -0.00347485109073
H           -1.33871419028363       -0.02102775947183        0.02705505742583
C           -2.02256126754824       -1.48347314932941       -1.39894316669758
C           -3.41665539286860       -0.28933415510391        0.32816479328033
H           -2.72331356500039       -2.31497963290889       -1.45051884148891
H           -2.31121965988708       -0.73803878642760       -2.13250064984896
H           -1.02507149619510       -1.84866457504405       -1.63534153070407
O           -3.78263124428815       -0.39595628884212        1.61165387198556
N           -4.09501329390423        0.26366960909570       -0.57769174268687
H           -5.25324112789321       -0.77148293432990       -2.01688802219152
C           -5.41726391799276        0.78852532951833       -0.28479211237258
H           -5.52377702788141        1.06945338052449        0.76766472645406
C           -5.67361701694730        1.99629498236219       -1.19798253828156
C           -6.39974990155677       -0.31712267025181       -0.58932534935398
H           -4.91643278024658        2.75104103834211       -0.97662751308734
H           -5.52636069459075        1.67818413424209       -2.23329399246877
C           -7.07070556628907        2.60692533675735       -1.04758848043148
O           -6.11031175566639       -1.06750270616975       -1.66864041043742
H           -7.81574909569333        1.81780085578329       -1.19332118224716
C           -7.27631950123040        3.21547793664081        0.33720115603593
C           -7.27831116936390        3.67313487952594       -2.12221435251984
H           -6.52576697672441        3.97937740354667        0.53048282572574
H           -8.25903338605404        3.67601151306418        0.40058473682252
H           -7.21015187646522        2.45735038377357        1.11218143395537
H           -7.16975236441424        3.24778835190147       -3.11740705857803
H           -8.27389216726504        4.10227258009403       -2.04169443615140
H           -6.54963387242698        4.47322074295503       -2.00880323132142
N           -7.40804882509209       -0.48674213073688        0.14420929801965
H           -8.61286125950368        0.23274530507038        1.29228361209721
C           -8.38200715234520       -1.52046859670700       -0.12808662076061
H           -8.58233940327477       -1.62424705796110       -1.20235112762535
C           -7.92688640803268       -2.87539180624777        0.42354449846541
C           -9.68438505664221       -1.11574383870982        0.57909720402886
H           -7.66809789981945       -2.77821472626604        1.47599183944076
H           -8.73401385031009       -3.59483305642617        0.31833176537831
H           -7.05589768231955       -3.22486393766628       -0.12558346855500
O           -9.54988303445742       -0.06313445312040        1.37590150748317
O          -10.71741554049406       -1.70807009008287        0.43364775986306
