42
 energy: -62.486133512169 gnorm: 0.000480273019 xtb: 6.7.1 (edcfbbe)
N           -1.45036989429318       -1.65398713428864        0.50733277130467
H           -0.50112182411069       -1.88525909647315        0.24007573914065
H           -1.94107453301116       -2.52919443484017        0.67159270548992
H           -2.44063776965364       -0.50933344439797        1.69581117695617
C           -2.12338659522148       -0.90668512934638       -0.55596410613892
H           -1.43791135852892       -0.11328372140282       -0.88022841287276
C           -2.53700895303136       -1.74243849698416       -1.76449011237362
C           -3.32708613726543       -0.21804066916387        0.06615872159764
H           -3.18258886955007       -2.55952852199856       -1.44945487877929
H           -3.09560233265936       -1.11876159014502       -2.45335456232337
H           -1.66183860861960       -2.15165174263811       -2.26532948189146
O           -3.27143704355045       -0.07899071356744        1.41046907461230
N           -4.26574731941815        0.18349909584838       -0.66393632971771
H           -6.46966126830543        0.42073324930420        2.05534270062045
C           -5.39593445752327        0.87408132300623       -0.08589534941816
H           -5.11568170003086        1.37295123693770        0.85538472964960
C           -5.89496628605843        1.89687373156831       -1.11628667749754
C           -6.48707193390435       -0.13544125540027        0.18561998899123
H           -5.07920379743074        2.58676476535176       -1.33860328584076
H           -6.11971026253658        1.32993492240369       -2.01932370488499
C           -7.13465681248291        2.68023790563193       -0.67351205772304
O           -6.98198880919220       -0.15959124206388        1.47875656479847
H           -7.89425520388898        1.97237423400031       -0.32281894136011
C           -6.81632006294656        3.66281503345653        0.45260774799086
C           -7.71284573193796        3.43488548021604       -1.86873395398584
H           -6.06687994295187        4.38029415010286        0.12464580459515
H           -7.71161506029990        4.21013906511123        0.73870778755561
H           -6.43778522519317        3.15584067035670        1.33729991579200
H           -7.99143144804038        2.74111213431980       -2.65750666245610
H           -8.59866747849397        3.99290458380539       -1.57467126694037
H           -6.98062053265527        4.13467860457126       -2.26590681244594
N           -6.87289122287457       -0.88922802089866       -0.73136125916151
H           -8.71645340012069       -0.37663542721587        0.99829275903278
C           -7.87329994378454       -1.91998103572292       -0.65562997432643
H           -7.81574022670197       -2.44926704373705       -1.61380604656622
C           -7.67087644946497       -2.92600822715791        0.48639665273754
C           -9.29659048084569       -1.34831033602506       -0.55673279714628
H           -7.78959203019134       -2.45552452954786        1.46004385865440
H           -8.39577965430995       -3.73070475479571        0.39202039484527
H           -6.66841308976435       -3.34368679985058        0.42375967945553
O           -9.51523537705414       -0.50615151577725        0.45313240905948
O          -10.16621212105159       -1.65446094416752       -1.32096932454325
