42
 energy: -62.486133506038 gnorm: 0.000479871730 xtb: 6.7.1 (edcfbbe)
N           -0.95072955206739       -1.31688338465174        0.52347042613363
H           -0.74297510121170       -0.89108080321498        1.42012696765485
H           -0.07237926078860       -1.52549909411176        0.06459122503702
H           -2.53400118904172       -2.26037279407225        0.80144938680774
C           -1.77413345650161       -0.43049275427764       -0.29852270381275
H           -1.53561734346164        0.63393648519078       -0.17834592257238
C           -1.63941769115426       -0.80843156153845       -1.77354097974638
C           -3.22654222699521       -0.64575519453274        0.11582980266837
H           -1.88283109802748       -1.85922781840017       -1.91694692670451
H           -2.31911746637680       -0.20376071468482       -2.36619844938783
H           -0.62217533128490       -0.63449905680549       -2.11793162731621
O           -3.42836133588296       -1.86129558028791        0.70058141702449
N           -4.04591331121655        0.26335492856859       -0.10986808151171
H           -5.04576335509378       -2.03161990506103        0.26792353188089
C           -5.46115056151539        0.46161432272088        0.07030418978821
H           -5.58380077481297        0.85949505083962        1.08865684799556
C           -5.76594813060853        1.59683409086627       -0.93531873501562
C           -6.42712181333744       -0.71180432089294       -0.04398634101837
H           -4.94668882743937        2.30765098261426       -0.80984411541237
H           -5.68203207805460        1.17762314554437       -1.93950557342802
C           -7.09131339246090        2.35585843756357       -0.82710770790203
O           -5.98800638582159       -1.97361142430088        0.03128464594988
H           -7.88320906239969        1.73565203514436       -1.24894464217165
C           -7.44921355433301        2.71270896024464        0.61230704672347
C           -6.99676203479320        3.62799183492833       -1.67052821342974
H           -6.64596017185165        3.28349777646826        1.07441930918388
H           -8.35213036855188        3.31851614008404        0.63210392445284
H           -7.62806023379639        1.81707706686076        1.20140589177516
H           -6.71840779588089        3.39041922142192       -2.69440087923009
H           -7.95489610836855        4.14132982642492       -1.68774340560149
H           -6.25110196581602        4.30611520588028       -1.26012964077945
N           -7.65379809579880       -0.45763141242331       -0.22337746291419
H           -9.17178075341224        0.66033536371763       -0.24304598736353
C           -8.61070513099956       -1.53998537588801       -0.33624753609405
H           -8.27779501629059       -2.30263593061956       -1.05030461397250
C           -8.88607889992895       -2.21497500574917        1.01543753111046
C           -9.93783856328226       -0.94408971821408       -0.81416611166663
H           -9.19592542535515       -1.47083605284475        1.74723777792222
H           -9.67946256469672       -2.94757807543137        0.89584846194874
H           -7.98849811419215       -2.71278735102947        1.37223130719167
O          -10.04197668753910        0.36130263494987       -0.58729845091253
O          -10.81657102477754       -1.59848618595006       -1.30297031607839
