42
 energy: -62.486133509172 gnorm: 0.000480220797 xtb: 6.7.1 (edcfbbe)
N           -1.48193973292381       -0.62595652115573       -1.02156617277907
H           -1.11741210913344       -0.12549070942600       -1.82108701388261
H           -1.33808059561798       -1.61776381659442       -1.18226704642668
H           -1.27999508253578       -0.57111522392316        0.75307285879793
C           -2.90757573358750       -0.34604914046773       -0.80352483869956
H           -3.15027147810458        0.62037661293206       -1.25817654759190
C           -3.78529283273298       -1.43463189042576       -1.42302495933458
C           -3.09768276001413       -0.16565166227767        0.72663558144288
H           -3.70893534079939       -2.36094415696585       -0.85539197950718
H           -4.82525763586351       -1.13266998255618       -1.46402659980038
H           -3.45731526846284       -1.62490161907718       -2.44482158944103
O           -1.99331230629508       -0.43184494632574        1.42132745320930
N           -4.06387288317002        0.30931265903812        1.38358580105947
H           -5.00940328532880       -1.66618202189054        1.77913161308425
C           -5.43379964837755        0.53492488264968        1.00297571378368
H           -5.93522236958084        0.80447952866201        1.94472342140852
C           -5.61173108101991        1.69616506271404        0.00772799803914
C           -6.09257801155744       -0.73755246695197        0.51656470613144
H           -4.82977773266596        2.43187432863066        0.20759642416058
H           -5.47258160186542        1.31490233241656       -1.00486030497305
C           -6.98184669363294        2.37942343663517        0.10774015974030
O           -5.71405947369949       -1.86860692419192        1.14385139133113
H           -7.74547493369081        1.60375603425735        0.21675755559199
C           -7.04758650534237        3.30998595369619        1.31682409139775
C           -7.26385690356743        3.17098719068810       -1.16843951812624
H           -6.32888517468150        4.11979110801095        1.20949419058219
H           -8.04072052762878        3.74391746377988        1.40551522924507
H           -6.82636868328412        2.77915784952499        2.23914470075369
H           -7.27078061844130        2.52194591391232       -2.04097470131763
H           -8.23139024591021        3.66246854969235       -1.10329848747241
H           -6.50289962895039        3.93521216706495       -1.31358733146089
N           -6.96856558009402       -0.69901018739637       -0.38706032139187
H           -7.73094237657437        0.17817486887677       -1.80310685715479
C           -7.63840677148136       -1.88686510851551       -0.86435679222449
H           -6.97661468263322       -2.76195975692483       -0.88536274125313
C           -8.86452435275051       -2.21121780114744       -0.00407417306116
C           -8.11808873358897       -1.58360031097090       -2.29140427560292
H           -9.51955302259721       -1.34413271366011        0.05358825094181
H           -9.40780895345198       -3.03992744738934       -0.44916878334483
H           -8.54813500435782       -2.48382632806556        0.99978449231026
O           -8.10333884687071       -0.28813951861315       -2.58722658223601
O           -8.48430568102494       -2.43150241456116       -3.05553084549636
