42
 energy: -62.486133511205 gnorm: 0.000480258381 xtb: 6.7.1 (edcfbbe)
N           -0.97249807707737       -0.45733097902883       -0.81638771535508
H           -0.28884629186348       -0.92172880026450       -1.40234749516696
H           -0.70558413943548       -0.61984867442310        0.15107106648393
H           -1.90503032141106        1.23063256630920       -0.69837677291972
C           -2.31247537656007       -0.99562300566783       -1.05457215809345
H           -2.46983021422024       -1.00048269662324       -2.14108225412854
C           -2.55028558675767       -2.40013181465362       -0.50908066636730
C           -3.31369062102539        0.00505793815315       -0.48918442690330
H           -2.35357260111673       -2.42557413418586        0.56068014725428
H           -3.58795861460374       -2.66793911566071       -0.67280897908644
H           -1.90245719954602       -3.11885346490886       -1.00711565681975
O           -2.84536800547294        1.27011729038619       -0.43046571874258
N           -4.44181078717886       -0.40980066735284       -0.13984121678307
H           -7.51372154668938        0.27862973463315        1.77475195197618
C           -5.54115994340418        0.38148642797781        0.34339145281977
H           -5.40604129719370        0.53112776714605        1.42523638420000
C           -5.70386152979997        1.74619686554660       -0.36218003914195
C           -6.79448073843964       -0.43069550884819        0.10197358370014
H           -4.78285506368635        2.31307772543927       -0.22858266558128
H           -5.81938513866545        1.53155818015379       -1.42666809997206
C           -6.88291717786370        2.60206767578883        0.11342454476649
O           -7.79336078740021       -0.30263431275548        1.05747328421244
H           -7.80782156942996        2.01689941057781        0.06968766290337
C           -6.67445756543215        3.11426535516269        1.53874044154560
C           -7.04945797502800        3.78967272335447       -0.83380280697422
H           -5.78249719677536        3.73576332618900        1.58339258709794
H           -7.52546162878404        3.71502291252505        1.85241579045952
H           -6.55320848888721        2.30490775110075        2.25706253183783
H           -7.24446587793584        3.44528316202758       -1.84626107427770
H           -7.88220722243689        4.41438076148409       -0.51881595854720
H           -6.14684106890668        4.39690999239583       -0.84359398065269
N           -6.88069211764708       -1.14847559930502       -0.91378677203952
H           -9.18727192261428       -0.29450686583787       -0.08858335597978
C           -7.98195488940856       -1.98674084690816       -1.30802561121532
H           -7.61866585226429       -2.55289307270718       -2.17355478922600
C           -8.44919759216621       -2.97038989560121       -0.22617800071300
C           -9.19219843080706       -1.17502634128721       -1.79533678383066
H           -8.86770418173045       -2.45086387912507        0.63307013739372
H           -9.20464039727455       -3.63333662084507       -0.64088978365058
H           -7.60123969311435       -3.56361040797519        0.10808860401744
O           -9.68994184634313       -0.29577971979597       -0.92557843339968
O           -9.67907466530469       -1.33281735393646       -2.87842391362621
