42
 energy: -62.486133511522 gnorm: 0.000480280813 xtb: 6.7.1 (edcfbbe)
N           -1.47747544401961       -0.26455271993445        0.51061742350812
H           -0.71363024927364       -0.81502067805591        0.88924871659907
H           -2.04960540644198        0.05307344621151        1.28627955314109
H           -2.93782703116139       -0.18320457090957       -2.56227915150568
C           -2.29286169007469       -1.08271283698295       -0.37174783710707
H           -1.70090985182857       -1.26612411931157       -1.28151298831519
C           -2.71931783106661       -2.43166775399589        0.22830123416681
C           -3.53407422547416       -0.28861063625389       -0.72046371363717
H           -3.33176581397113       -2.25411026950520        1.10848471556472
H           -3.30134224326512       -3.00417489848399       -0.49021777946258
H           -1.84158051068310       -3.01168639924496        0.50712026112176
O           -3.71714332216357        0.03842615147781       -2.03861779939471
N           -4.32635701197357       -0.00626909436833        0.20674291547637
H           -5.71638669684114       -0.03421001810521       -2.22181176681028
C           -5.55990775084690        0.74015905529844        0.07811761710405
H           -5.86977148412478        0.93096711065690        1.11063708278016
C           -5.44300044465449        2.07237490022528       -0.67502924179072
C           -6.59503880769776       -0.18269513952264       -0.52919101875465
H           -4.71886375526143        2.69301343717612       -0.14205496962084
H           -5.04690960284011        1.90511837439848       -1.67926492147954
C           -6.77707201081315        2.82034774561273       -0.78940821557111
O           -6.50573308971961       -0.45115795673597       -1.84320224197702
H           -7.50717007656796        2.16704781586094       -1.28100307334539
C           -7.33022621731435        3.21646263429811        0.57711761533821
C           -6.58192957658376        4.06394086141537       -1.65618164321645
H           -6.59078373327331        3.78661652849645        1.13551797796492
H           -8.21673560083540        3.83399953855877        0.45457102160710
H           -7.60949337279154        2.34095849949369        1.15659822957359
H           -6.21281565671852        3.79656229938280       -2.64422590906332
H           -7.52298540681592        4.59465848598917       -1.77685553698997
H           -5.86508086259524        4.73861931677460       -1.19267848772408
N           -7.45218084625351       -0.70843734928891        0.22985205788959
H           -8.35544339919060       -0.74018646226314        1.80512593173195
C           -8.43031648762701       -1.65079706308164       -0.26792930658950
H           -8.87526157345596       -1.31737511314518       -1.21385755459936
C           -7.81785958299154       -3.04102409042803       -0.47220273077003
C           -9.53876454085723       -1.76018394694460        0.78938590596059
H           -7.32084800263478       -3.36415520140307        0.44051689344296
H           -8.60554961536169       -3.74697715374513       -0.71970392270428
H           -7.09131629156722       -3.01118553744179       -1.28037972232168
O           -9.23933580791420       -1.15700463607109        1.93345643881780
O          -10.56552033134211       -2.35084826551839        0.60106308764216
