42
 energy: -62.486133522923 gnorm: 0.000478579286 xtb: 6.7.1 (edcfbbe)
N           -1.74264379108264       -1.16821395396741       -1.70191098817691
H           -1.11654447157156       -1.94648917283421       -1.86731640762441
H           -1.17263222446278       -0.33501545527796       -1.58454288147098
H           -3.31755830966480       -0.36557325576738       -2.41968102921585
C           -2.55176491906851       -1.38875469640069       -0.50488805410447
H           -2.92756596524579       -2.41890589482019       -0.54863060553365
C           -1.80344836717300       -1.18134019657051        0.81023967934191
C           -3.77359514925907       -0.47604946489673       -0.60597705497194
H           -1.40380881782894       -0.17021877213732        0.85664461835533
H           -2.48712343533876       -1.31636543097456        1.64104836811773
H           -0.98303345572911       -1.89109076752699        0.89817872010304
O           -4.03055562520946       -0.02817768559784       -1.83836097690363
N           -4.43575616301635       -0.25624645454698        0.44083757793845
H           -6.36481855557756       -1.19212671104572        1.95072398068343
C           -5.64513057149236        0.54856955320847        0.49766610028386
H           -5.71592281130853        0.86877456448724        1.54775297796371
C           -5.70410039106028        1.77245513152110       -0.41632238508583
C           -6.76802094357380       -0.42488597393464        0.21919317364769
H           -4.74779025480513        2.29655487280868       -0.35906366167619
H           -5.84924655940001        1.42039566446348       -1.43573871542176
C           -6.84165666000813        2.73020492756297       -0.04450731106144
O           -7.03273610277809       -1.29390048783756        1.26107317996685
H           -7.74356433968625        2.13811761296462        0.14308800973553
C           -6.51287201283909        3.54667101739727        1.20415281310682
C           -7.12226732769005        3.66844725155921       -1.21616998147047
H           -5.62804309487519        4.15689742114954        1.03306742319960
H           -7.34060791552846        4.20756209572956        1.45134583376415
H           -6.32600387223989        2.90821532622522        2.06438052492585
H           -7.42202302284878        3.09980844894417       -2.09222568175607
H           -7.92142277639273        4.36279629101149       -0.96704074317777
H           -6.23185047093723        4.24309611337548       -1.46327162481129
N           -7.30825782264991       -0.47130943065226       -0.90494449989486
H           -8.82587326941747       -1.34414540147984        0.99787668613133
C           -8.29922850815992       -1.40989257786023       -1.36204668407066
H           -8.41704613725798       -1.20608059748603       -2.43270475470084
C           -7.90737158694924       -2.88197770404425       -1.17140489417608
C           -9.67685426648801       -1.18428027199390       -0.72050075857285
H           -7.83982223367621       -3.14312079126290       -0.11744904270122
H           -8.64928632674128       -3.51849072479665       -1.64717517052583
H           -6.93909030409110       -3.05829533269394       -1.63491542466039
O           -9.70914281371254       -1.19573952915195        0.61158983091629
O          -10.67010961788985       -1.03390533926207       -1.37313490940667
