42
 energy: -62.486133480203 gnorm: 0.000490399521 xtb: 6.7.1 (edcfbbe)
N           -1.65464503985075       -1.30836318312934        1.20577215808757
H           -0.69019308857080       -1.59172929599130        1.08319116607319
H           -2.15508605135812       -2.09383298097379        1.61342002398763
H           -2.71535066143048        0.11559720103491        1.92491835077976
C           -2.26189195116670       -0.94577316070093       -0.07387804686530
H           -1.55473232048677       -0.28928095303524       -0.59728807403584
C           -2.60849602372357       -2.13240295441946       -0.97123834295097
C           -3.49532806796437       -0.10854988379205        0.23697308105521
H           -3.31002251213896       -2.79215758792434       -0.46385909353615
H           -3.07554980394468       -1.77360919576026       -1.88217256029722
H           -1.71078616977273       -2.69382931573024       -1.22303351034169
O           -3.51093970528439        0.44429137330810        1.45900325033668
N           -4.38742451686984        0.02951371441946       -0.63918580998270
H           -6.24453290276049       -0.02879440569553       -2.50872899813636
C           -5.57572773382670        0.81905681724735       -0.36874986691123
H           -5.63848015470247        1.10113276835230        0.68821623132045
C           -5.57951316244319        2.07411100818633       -1.25046720040057
C           -6.71931788387277       -0.12010307270356       -0.67369983162869
H           -4.80231713132316        2.74378168080605       -0.87627118397103
H           -5.29675305217702        1.79986571299466       -2.27184402986476
C           -6.92398980312378        2.81147806737925       -1.26925559336217
O           -6.92954860854811       -0.43679619965824       -1.96352422254665
H           -7.69482968856966        2.13775601336372       -1.66057513851995
C           -7.34222100920872        3.25483374372107        0.13056586466872
C           -6.82575751417889        4.02047548588656       -2.19853240079086
H           -6.55606804779247        3.84832094729592        0.59235967942110
H           -8.24281777977273        3.86198829135112        0.07600253282745
H           -7.55133476396696        2.39742487158754        0.76455494873422
H           -6.54000224258369        3.71741284889341       -3.20369039355148
H           -7.78255473086164        4.53348899462800       -2.25632793808742
H           -6.08248322907185        4.72285543571461       -1.82729339392654
N           -7.34398157188487       -0.64709211915935        0.28453930020573
H           -7.80778992094981       -0.65118127088233        2.03286206010636
C           -8.38941940856048       -1.62418171535030        0.07210354965643
H           -9.07802283193510       -1.31737060419442       -0.72496110598800
C           -7.81602746201838       -3.00276957671326       -0.27409388164107
C           -9.17488843468056       -1.74056878392767        1.38701595715717
H           -7.09341319345629       -3.30284794694622        0.48238717300441
H           -8.62336564225233       -3.72910368730373       -0.30392326931370
H           -7.32266011141255       -2.96703815999272       -1.24197514563443
O           -8.60783750673129       -1.09659649862210        2.40000762788945
O          -10.19008981942514       -2.37143823378733        1.48961113951221
