42
 energy: -62.486129634160 gnorm: 0.000473372828 xtb: 6.7.1 (edcfbbe)
N           -1.57910512445134       -1.07627830447994       -0.50784574839732
H           -0.95636413495626       -1.87506051452408       -0.48501286567392
H           -1.13210771993836       -0.32645377744766        0.01351526355970
H           -2.65786642766244       -0.10786345098142       -1.77283075315364
C           -2.86668718506658       -1.40288444983251        0.10711103960379
H           -3.19968039039990       -2.35425824260840       -0.32760021475415
C           -2.83832793589560       -1.52766291178767        1.62677074666207
C           -3.86667271395938       -0.34994305993974       -0.35645364773918
H           -2.48519722536072       -0.59984161463106        2.07191013251595
H           -3.84178567189547       -1.71999647980262        1.98936447852486
H           -2.18045908661896       -2.33993222752421        1.92945561083095
O           -3.54897957340111        0.22214143018857       -1.53678739380535
N           -4.88294779829952       -0.13488911804075        0.34461400350093
H           -7.18578957007620        0.94071116800698       -2.13933611532500
C           -5.95973851024406        0.77555089120408        0.02293192532112
H           -6.30930788121145        1.12707750673935        1.00354407780687
C           -5.61432240233471        1.99292685931913       -0.84314561147267
C           -7.07281600344341       -0.10390246957529       -0.53158745171662
H           -4.67752424422106        2.40864643954761       -0.46613370922816
H           -5.41414277617365        1.68331618786932       -1.87308379649357
C           -6.69571689756410        3.08652659202495       -0.79952892526444
O           -7.59415309438770        0.15890039521226       -1.74486671456974
H           -7.68973839972859        2.62323890014664       -0.77917272393714
C           -6.55521711270796        3.94023703771035        0.45919122354958
C           -6.59881142698890        3.97279670256784       -2.04128762267552
H           -5.60312812596032        4.46680467261478        0.45446253095393
H           -7.35350210428141        4.67722760874987        0.50813442580945
H           -6.60457404704257        3.32695334341940        1.35548168168415
H           -6.76616925859177        3.40104612201944       -2.95271870706425
H           -7.34090481465050        4.76659691725876       -2.00025928860140
H           -5.61316882758319        4.42922782588280       -2.10173898831568
N           -7.43209005215577       -1.08467506355733        0.16929314883448
H           -7.27385070787322       -2.00118008574908        1.69604699771844
C           -8.43457767483972       -2.03554243285259       -0.24514482043712
H           -9.36816242760337       -1.53640193878509       -0.53436547638521
C           -7.96808666067439       -2.92039940151349       -1.40624072021914
C           -8.71171144326190       -2.93720925485099        0.97054065092476
H           -7.01345442886446       -3.38021838465616       -1.15834210444824
H           -8.70528633512329       -3.69960923627233       -1.57869714389059
H           -7.85245765354409       -2.32486209724971       -2.30773616038887
O           -7.86972061890547       -2.73998053804110        1.97513217712640
O           -9.59188678957109       -3.75290739592192        0.99135191382275
