42
 energy: -62.486133513854 gnorm: 0.000479481435 xtb: 6.7.1 (edcfbbe)
N           -1.33333252945955       -0.80736378760114        0.02691246323904
H           -0.66639800766387       -1.56037447869846       -0.09268792870665
H           -1.16053865915771       -0.38939997503588        0.93729462593050
H           -2.04835457064924        0.67563087402017       -0.95431939428787
C           -2.70513127032206       -1.31264865791762       -0.02915328492975
H           -2.77513611359152       -1.95920798926128       -0.91375742535408
C           -3.15184346627535       -2.09535713044917        1.20201237024675
C           -3.61653459245675       -0.11664148238241       -0.29526106658236
H           -3.06599562150176       -1.47504985698637        2.09144638142343
H           -4.19125701901921       -2.38221043699859        1.08769192093495
H           -2.54042008956553       -2.98641100418905        1.32930461263966
O           -2.99675722839661        0.91465015736852       -0.90771908455846
N           -4.81788840244036       -0.20504363177988        0.04233644789831
H           -7.18709673758554        0.83820483921829       -2.24828105132989
C           -5.88028362172272        0.75449543457902       -0.12812596736519
H           -6.12044241269696        1.08826538876099        0.89053826427474
C           -5.61745551559928        1.98325771567738       -1.00756656482253
C           -7.06025296525828       -0.10082921218939       -0.57825756627494
H           -4.68677342800385        2.44271431727384       -0.67466755853284
H           -5.44564534481201        1.66865849899068       -2.04294497657162
C           -6.73663708423242        3.03552857527295       -0.93158767976523
O           -7.60894211844275        0.09841090508402       -1.79211472980724
H           -7.71600616400256        2.54219952694467       -0.92349022428813
C           -6.62048043372496        3.85825411642131        0.35016324126790
C           -6.66851905486228        3.95952601772977       -2.14741882981115
H           -5.67505403943221        4.39634399618140        0.36998700141976
H           -7.42869743981169        4.58368127282994        0.40786960143851
H           -6.67400042049117        3.22294383001568        1.23079873692902
H           -6.81184644506108        3.40744256253509       -3.07481132473499
H           -7.43941245148236        4.72410429281775       -2.08736831289619
H           -5.69986255681740        4.45277135661198       -2.19037104043752
N           -7.43351058543375       -1.01531904345718        0.19964522137010
H           -7.23217896078975       -1.84850847490025        1.76302167366115
C           -8.47597071835478       -1.96069218569879       -0.11742597740802
H           -9.40706378506677       -1.45539209412546       -0.40376673817295
C           -8.07525222989366       -2.92975288552282       -1.23554157431875
C           -8.72872828869501       -2.77764189621926        1.16185055454752
H           -7.11579329553029       -3.38620163275117       -1.00014907254800
H           -8.82972369837734       -3.70682453794104       -1.32119709436093
H           -7.99297019443783       -2.39849627973816       -2.17987962973278
O           -7.83611786446652       -2.54920921119451        2.11512773567332
O           -9.63188583968160       -3.56053363028553        1.27079843636046
