42
 energy: -62.486133514435 gnorm: 0.000479514952 xtb: 6.7.1 (edcfbbe)
N           -0.91336178155451       -0.61030414550799        0.06099964134677
H           -0.06632579486157       -0.86895123307545       -0.43063668197573
H           -0.99334568040003       -1.22009258440303        0.87114200103801
H           -1.84606714781983        0.96399437978357        0.70158501789862
C           -2.08542401845032       -0.77647837293617       -0.79999151980304
H           -1.85070411811084       -0.30404366698370       -1.76302938542985
C           -2.50858422976609       -2.22363515985774       -1.03996575076585
C           -3.21607164760024        0.03555358639246       -0.18735589950072
H           -2.69517041530319       -2.72240881452767       -0.09032782240948
H           -3.42733185723935       -2.23293601598913       -1.61668390148620
H           -1.73301149668082       -2.76500928488467       -1.57800148451279
O           -2.81827630707976        1.03584542902193        0.62714010396899
N           -4.40707050801603       -0.24346964518077       -0.47017344399638
H           -6.40548081715190       -0.30089912730782        2.12484078440463
C           -5.49789083016106        0.55448940717102        0.04190102064327
H           -5.23919970382512        1.00215654326075        1.01541379196481
C           -5.81957898805311        1.66713156873753       -0.96747833193175
C           -6.68318466843930       -0.36882720679736        0.19518132743320
H           -4.92709532857655        2.28510339850144       -1.08546055513785
H           -6.03225963775187        1.17234145226981       -1.91503958381295
C           -7.00950579978027        2.54753695479372       -0.57487058423724
O           -7.03052575056164       -0.68664112003237        1.49884949409587
H           -7.87241743783450        1.90256859952879       -0.37730560241837
C           -6.71967299328393        3.38318852056492        0.67065144142878
C           -7.35997749346462        3.46471213463011       -1.74504641271408
H           -5.82735680177768        3.98805502106365        0.52172873579069
H           -7.55481361409269        4.04848321410848        0.87749273007598
H           -6.56813964286925        2.75838119331970        1.54773353467027
H           -7.60024807295173        2.87858420259735       -2.62822245336880
H           -8.22015075969188        4.08311340787900       -1.50012129075634
H           -6.52181690416611        4.11786967086215       -1.97984622132191
N           -7.26370844649791       -0.80914602251284       -0.81726546161065
H           -8.82289337345190       -0.62665186010716        1.23221044774193
C           -8.36808414606292       -1.72983498582297       -0.86662949914096
H           -8.48683420609017       -1.98269825762372       -1.92658801310847
C           -8.15653490343522       -3.02083796654148       -0.06375826893220
C           -9.69005683325113       -1.08507406935202       -0.42166847265913
H           -8.09547195881912       -2.82155034955066        1.00389988040903
H           -8.98274161104344       -3.70265191044672       -0.24962925861970
H           -7.22887957261863       -3.49100922627197       -0.38196460913528
O           -9.68901494998194       -0.53489522929043        0.79278034010593
O          -10.67191100802075       -1.09308822720212       -1.10755470762576
