42
 energy: -62.486133506758 gnorm: 0.000480813890 xtb: 6.7.1 (edcfbbe)
N           -1.07521510261919       -1.15333024427798        0.15989002495014
H           -0.18650262601090       -1.30404026525849       -0.30230575853547
H           -1.32561152015817       -2.02072762482551        0.62731708444198
H           -1.97654597904581        0.08875716230092        1.31354280520473
C           -2.11381547892442       -0.80139243580270       -0.80987543931306
H           -1.69654961518379       -0.02999024395442       -1.46937550113280
C           -2.62390402103706       -1.96622711745604       -1.65451728895952
C           -3.25316738889726       -0.14911401378982       -0.04090430914714
H           -2.97212327954820       -2.76993552131438       -1.00870364473570
H           -3.46204692455019       -1.62774854326534       -2.25362366406452
H           -1.83594820418626       -2.34646322023980       -2.30150276382240
O           -2.91382515928465        0.33207055371277        1.17575716082845
N           -4.38991543592517       -0.07900190910841       -0.56576402817798
H           -7.18019648402934        0.30143745051618        1.81851709793670
C           -5.48894944807269        0.56106300806835        0.10570102551202
H           -5.25064142868070        0.78329752544067        1.15934989648639
C           -5.80638622653653        1.86558683079192       -0.65314699567231
C           -6.69001200637253       -0.35057800992649        0.04298180681108
H           -4.90135375248206        2.47685859368090       -0.66009699965801
H           -6.02690394844428        1.57502924192000       -1.68108952653031
C           -6.96945007262246        2.68404660085026       -0.08322149541641
O           -7.53103172094387       -0.29669759647614        1.14716737491567
H           -7.84160184229581        2.03379379075307        0.04544885585641
C           -6.61233301024516        3.31877348004601        1.26070627035559
C           -7.35358731317402        3.77648925977016       -1.07990512626052
H           -5.77935865926197        4.00774373620110        1.13805043909869
H           -7.46074342354516        3.87507591643077        1.65314307360754
H           -6.32481529371724        2.57626147238956        2.00242257490251
H           -7.66457988019613        3.33816864683059       -2.02466484654396
H           -8.17619801457686        4.37272478673864       -0.69176707557460
H           -6.50832247464382        4.43551567418040       -1.26617685836842
N           -6.88319940021549       -1.07058139932851       -0.95578978984419
H           -9.07832564091044       -0.36720030384095        0.21349013047958
C           -7.96865588170885       -1.98618274970852       -1.18494704205763
H           -7.70351219447497       -2.52610649220812       -2.10128755435801
C           -8.19841940422352       -2.99890948855408       -0.05437744811089
C           -9.29373770203188       -1.26252613627189       -1.47257201640099
H           -8.50809900687277       -2.50756148768494        0.86549243547543
H           -8.96713582389752       -3.70729115278380       -0.35299966496169
H           -7.27406861632666       -3.53922735414318        0.13627587864418
O           -9.70330644003676       -0.40769340892355       -0.53510587369710
O           -9.93609539926427       -1.46619321041936       -2.46259820632167
