42
 energy: -62.486133520710 gnorm: 0.000479121022 xtb: 6.7.1 (edcfbbe)
N           -1.15633499879270       -0.49450802576989       -1.31015088756692
H           -0.52632490004264       -1.10280324090629       -1.81917090238027
H           -0.70608991423591       -0.25531791758954       -0.43077832193577
H           -2.28150892322869        1.03560746889662       -1.63473332352310
C           -2.42944670930036       -1.16588818086282       -1.04612722974636
H           -2.76938279608541       -1.60040578391628       -1.99502822057606
C           -2.36938697886212       -2.26293922021179        0.01228573141353
C           -3.45053271527578       -0.08836153529966       -0.69134324294262
H           -2.00250059297560       -1.85759798771042        0.95309661835819
H           -3.36892192851997       -2.65095179012472        0.17236160837181
H           -1.71155665112314       -3.06826836334339       -0.30846231554811
O           -3.15588697776863        1.12227993933618       -1.20370001756284
N           -4.44013134925042       -0.41759606700663        0.00081512496249
H           -7.62272614020543        0.28845527745028        1.70574281498793
C           -5.56076655754714        0.38633470213408        0.40352759506985
H           -5.48238441337208        0.47999152480131        1.49755723629518
C           -5.68027342072745        1.78509730848518       -0.23744280016162
C           -6.80088947602248       -0.42045924635239        0.08216364340377
H           -4.75903789248327        2.33201816879401       -0.03524839924056
H           -5.75081243254115        1.63630080858635       -1.31605940969334
C           -6.86814329672617        2.63193267846384        0.23410808753320
O           -7.85841234567243       -0.28732514260687        0.96848640022366
H           -7.79762388202262        2.06348502848207        0.12104947024102
C           -6.71477368360411        3.06853076388522        1.69153606614639
C           -6.98028462199586        3.86902597456010       -0.65641367746392
H           -5.82531798218400        3.68532994690779        1.80292179229014
H           -7.57665952037733        3.65506961163142        2.00262390382402
H           -6.62143557253970        2.22351564330912        2.37215476490423
H           -7.15654217331739        3.58047799806703       -1.68940605598389
H           -7.80499809490788        4.49931022327614       -0.33140742507963
H           -6.06277565340538        4.45185226507830       -0.61373232271285
N           -6.82082078505629       -1.14482556495320       -0.93344633869421
H           -9.16978630098102       -0.27908130479452       -0.27408559921152
C           -7.89220988562032       -1.99244327264018       -1.38675258914847
H           -7.47190892102391       -2.56732846754260       -2.22013263497483
C           -8.42170226356058       -2.96523825171473       -0.32377529387812
C           -9.07617177880857       -1.19746441110736       -1.95838860052677
H           -8.90465847861625       -2.43765256183618        0.49583495687174
H           -9.13907055230208       -3.64360463585598       -0.77898445824468
H           -7.59206288554034       -3.54261195417324        0.07770511960801
O           -9.62255914284793       -0.29954876839886       -1.13852317280908
O           -9.50337765809935       -1.38441981179589       -3.06174263849685
