42
 energy: -62.486133521506 gnorm: 0.000478469012 xtb: 6.7.1 (edcfbbe)
N           -1.49950073681914       -1.32788445936427        1.07954000964833
H           -1.15222731526213       -0.50252963749788        1.55704626104530
H           -0.71622622883460       -1.95186426688502        0.92561183229292
H           -3.35245502799669       -1.41651061791157        1.71997162939143
C           -2.13215639212590       -0.96394621335028       -0.18616353401842
H           -1.57816823915638       -0.21117946214749       -0.76467328239946
C           -2.32151872393251       -2.21810345704183       -1.04220348138422
C           -3.50052527198533       -0.40217441301781        0.15272674539969
H           -2.91241835658681       -2.95476944320145       -0.50200308943072
H           -2.83171312685677       -1.96385746242104       -1.96644321812681
H           -1.35627101045389       -2.65660062868373       -1.28628362651244
O           -4.03901506216579       -0.87100328254329        1.28514596592261
N           -4.04711135803599        0.42844684006789       -0.62179125568258
H           -5.26972609210220       -0.58802546752659       -2.15466972845449
C           -5.39301466002143        0.89420402667180       -0.32582102855689
H           -5.49969983994486        1.13839311678341        0.73629177102680
C           -5.67759538307710        2.12512354987327       -1.19727456416630
C           -6.35870264356583       -0.22074059965677       -0.64715636744570
H           -4.92693864404475        2.88102747784299       -0.96017657313939
H           -5.53643286350838        1.84293160105452       -2.24377765648413
C           -7.08073236288621        2.71241845583898       -1.01556608767138
O           -6.08959531313471       -0.92619955683630       -1.76380597141854
H           -7.81711406424365        1.91864977336594       -1.17984564881851
C           -7.28277434592087        3.27454173764516        0.38916619173626
C           -7.31033326227409        3.80997408555192       -2.05364262888127
H           -6.54414146370269        4.04581968592567        0.59842949185311
H           -8.27289897138293        3.71503283786163        0.47597993766786
H           -7.19589974405477        2.49443019416550        1.13989158948347
H           -7.20493579164587        3.41829617070226       -3.06287335228659
H           -8.30996055148874        4.22489516271106       -1.95154633225877
H           -6.58972694428952        4.61428167233651       -1.92023563573800
N           -7.34938859787481       -0.43253044104167        0.09835741529471
H           -8.51267620114678        0.18410938532699        1.34020561046078
C           -8.30449297322831       -1.48098280769258       -0.18181416286703
H           -8.55287461907850       -1.53683642280766       -1.24957054306059
C           -7.78377810715820       -2.84703449998254        0.27740058471864
C           -9.58178191791912       -1.15365836711424        0.60616335065278
H           -7.47163654997183       -2.79178179114401        1.31829835763732
H           -8.57512392047519       -3.58475587158080        0.17868280083774
H           -6.93354745653715       -3.14266997457154       -0.33232124017430
O           -9.43648524988396       -0.14237182405287        1.45313986507665
O          -10.60487587177529       -1.76659061050388        0.47654464118794
