42
 energy: -62.486133509150 gnorm: 0.000480404534 xtb: 6.7.1 (edcfbbe)
N           -1.17723835416294       -1.31279839557002        0.33531687742936
H           -0.26141891258859       -1.50392861016826       -0.05285201331430
H           -1.53035687076206       -2.18356013665287        0.72433067753907
H           -2.09057852638303       -0.06564418236864        1.47535866706814
C           -2.09215904349961       -0.83052257700634       -0.70077589609788
H           -1.56087325692960       -0.05764231712137       -1.27097624118174
C           -2.60040063445250       -1.90485028909906       -1.65879410209221
C           -3.24959585859048       -0.13583003147902        0.00086325188177
H           -3.07068129314133       -2.71055298325529       -1.09900789108755
H           -3.34620403340335       -1.47042562219938       -2.31496108131045
H           -1.78188721759383       -2.31218866773161       -2.24882874939785
O           -2.99557604614420        0.24556987572180        1.27301453388594
N           -4.32232679706938        0.05523693684642       -0.62051933748912
H           -6.74310504897163        0.42047660998871        2.00678490024610
C           -5.42931220895309        0.74930380013681       -0.01282246741988
H           -5.15246900928252        1.18291976737263        0.96219751351044
C           -5.87590607517104        1.85305730600181       -0.98695043032408
C           -6.56472487426673       -0.22918626121603        0.17409329474020
H           -5.03234463606561        2.52629741834502       -1.15103757398566
H           -6.10069235116958        1.35107891129149       -1.92801939224600
C           -7.09508109843639        2.65515867011908       -0.52095602719339
O           -7.18829671830242       -0.19599812633901        1.41222486988564
H           -7.88352032085232        1.95975111606335       -0.21192204661672
C           -6.75614177730424        3.57552979282081        0.65102226100276
C           -7.63360401207192        3.48159238188902       -1.68714634285033
H           -5.99645326203712        4.29591380628596        0.35445156256434
H           -7.64077635454596        4.12307715446800        0.96853759233488
H           -6.37940482413802        3.02091183402706        1.50779467747480
H           -7.93491786301324        2.83260420084650       -2.50541078266453
H           -8.49790098506112        4.06315762099055       -1.37500349397330
H           -6.87055880788958        4.16620342734052       -2.05121899889839
N           -6.88912099048552       -0.99097224944230       -0.75875336012330
H           -8.87639567628396       -0.38161660786086        0.77506412407478
C           -7.93075418669496       -1.98308709988388       -0.76036236732672
H           -7.79932309668434       -2.53883508835018       -1.69594147221812
C           -7.88025656401540       -2.96524376013920        0.41836716907792
C           -9.33291153405161       -1.35600658010055       -0.81778222640091
H           -8.06234074533554       -2.46279648929611        1.36598563989516
H           -8.63184674670116       -3.73829321232476        0.27819785487273
H           -6.89735792763314       -3.42966598421000        0.45631687003368
O           -9.62117012465854       -0.48986952767488        0.15400518338909
O          -10.13020659080365       -1.64035147038252       -1.66495004998762
