42
 energy: -62.486133513230 gnorm: 0.000479815209 xtb: 6.7.1 (edcfbbe)
N           -1.74304601174872       -0.95750236458114       -1.96696674020193
H           -1.07708472266233       -1.68283258300337       -2.20438791921602
H           -1.21497572016211       -0.12122787269159       -1.73225105480478
H           -3.41237349050423       -0.18958209866184       -2.61137081565062
C           -2.56536343098754       -1.35800234098168       -0.82577631019070
H           -2.95969642231376       -2.35810547181265       -1.04761471706027
C           -1.82937210475760       -1.39374638399533        0.51109382541214
C           -3.77354040650808       -0.42844063031886       -0.78587233846254
H           -1.40814251259444       -0.41556282238627        0.73338842499067
H           -2.53132712531167       -1.64939684299766        1.29670279125168
H           -1.02722846108443       -2.12895315215240        0.48605048422197
O           -4.08855959056740        0.10958528537470       -1.97177117758876
N           -4.36406667297536       -0.26629805090896        0.31122274463068
H           -7.62637962606852        0.45481643115522        1.79228808225192
C           -5.56691991893208        0.50309969933084        0.50065266564821
H           -5.54750245102280        0.78021433600859        1.56553626238729
C           -5.69813665036109        1.77679387449882       -0.35860496744611
C           -6.76092014336846       -0.39387735176400        0.26418131405073
H           -4.75128542114689        2.31788528879587       -0.29426480312755
H           -5.83769026227247        1.46565507813371       -1.39341548788211
C           -6.84210436393407        2.71394331074256        0.04556371989959
O           -7.83715176413394       -0.19801721776186        1.11365215322737
H           -7.77557354394992        2.14343960110871        0.10784975620740
C           -6.58020464731161        3.39725952608775        1.38759491229569
C           -7.02640943935808        3.77423735617305       -1.03957069765128
H           -5.67762933826856        4.00176323241426        1.32792630054149
H           -7.41086126202725        4.05016713669416        1.64698532839048
H           -6.45074866916282        2.68111303262961        2.19690741585185
H           -7.26917601259373        3.30825072066701       -1.99117487597188
H           -7.83314427500008        4.45421267485883       -0.77514363349587
H           -6.11409904009599        4.35384564506298       -1.16258815194737
N           -6.73518938632728       -1.22726171032427       -0.66427158590318
H           -9.11261387632858       -0.36288231969901       -0.16861675870170
C           -7.76384734296866       -2.16035886777317       -1.03929539042229
H           -7.30295876512859       -2.81223749711141       -1.79053225068992
C           -8.29278118695158       -3.02089155760622        0.11647032082232
C           -8.95573860394633       -1.47606006754652       -1.72639530398917
H           -8.81326060083239       -2.41826930913527        0.85770058138232
H           -8.97726157900243       -3.76985751875424       -0.27416867796423
H           -7.45808475858179       -3.52146885188513        0.60214491539066
O           -9.54203390312383       -0.49969041625599       -1.03390599375383
O           -9.35170776599636       -1.80778453454175       -2.80701706266450
