42
 energy: -62.486133515867 gnorm: 0.000479909042 xtb: 6.7.1 (edcfbbe)
N           -2.91134204891922       -2.12976536206302        1.78422177640613
H           -2.03566830959729       -2.60788871979280        1.95733989702500
H           -3.58923807113952       -2.82844954414176        1.48559018689927
H           -4.17855524275398       -0.93537608692853        2.53859905839386
C           -2.75782694269576       -1.11678727770282        0.74231475312553
H           -1.89744130549245       -0.49142100919994        1.01597657413399
C           -2.54906478472286       -1.67058342758788       -0.66623218830094
C           -3.99151297257597       -0.23011853876593        0.81296636410410
H           -3.33075508071570       -2.38811296234029       -0.90476665144302
H           -2.59404471845453       -0.85633981292188       -1.38117424393082
H           -1.58348978543716       -2.16667801843890       -0.73942372071591
O           -4.62581454477599       -0.24992369620449        1.99744530195424
N           -4.32294158791655        0.47881756363649       -0.17403913009316
H           -7.68754088258548        1.97098973634667        0.81651389064764
C           -5.54400387616559        1.25233754015277       -0.13518316043046
H           -5.44710450882606        2.05748456792053        0.60944805370840
C           -5.72938206683546        1.84657761894166       -1.54334785676039
C           -6.73163294024280        0.39848861251729        0.25569537441215
H           -4.78826235865874        2.33166542131601       -1.80635571815495
H           -5.86681732123047        1.00686631663906       -2.22657857358784
C           -6.88199753357106        2.84067572728897       -1.71645603295437
O           -7.83325025341679        1.02141302216261        0.72524528322275
H           -7.82136376402504        2.36653191857034       -1.41026349391920
C           -6.66870772445936        4.11469617696839       -0.89882333172465
C           -7.01132362260722        3.20427550182335       -3.19568219807502
H           -5.74863288204870        4.60578073034316       -1.20822611303557
H           -7.49384079784838        4.80610806152637       -1.05614871400899
H           -6.59877511443209        3.91589130013030        0.16908903925398
H           -7.20104759758865        2.31690854297331       -3.79449677490078
H           -7.83245655208691        3.90140219914884       -3.34645501264476
H           -6.09550924380378        3.66993641021026       -3.55258821662356
N           -6.64395282602375       -0.85089560918389        0.15313120024384
H           -5.53414034122341       -2.18684349756130        0.06566186638736
C           -7.66526415673329       -1.77586165040405        0.56927910445209
H           -8.19249922107367       -1.43841360793261        1.47043314875491
C           -8.68490181807762       -2.03033428542857       -0.54526052671687
C           -6.93421365319985       -3.09233351985125        0.87912896666006
H           -8.17181074460896       -2.32519173958912       -1.45854877473615
H           -9.35975443501769       -2.82572422932062       -0.24167719551372
H           -9.25584194032110       -1.12508278286571       -0.73677028452552
O           -5.67124238745486       -3.09170610194673        0.45596043328403
O           -7.44322530956598       -4.02504124262286        1.43339257419051
