42
 energy: -62.486133508143 gnorm: 0.000480716773 xtb: 6.7.1 (edcfbbe)
N           -0.90901423233650       -0.32467759964916       -1.17019657681996
H           -0.14608791641976       -0.93640054895256       -1.43268926937410
H           -0.54940181044509        0.33784546465789       -0.48833220928931
H           -2.25125648972829        0.73470614234523       -1.97094293169158
C           -2.01660031941070       -1.08176012502757       -0.58904642546811
H           -2.17778064201599       -1.96299375715065       -1.22358196380083
C           -1.79197394256042       -1.53387390305542        0.85152447151109
C           -3.26887618837465       -0.21051496179922       -0.70906204314196
H           -1.59868898186970       -0.67182544045691        1.48694046426992
H           -2.68289380187323       -2.03307657036038        1.21675692254090
H           -0.94519583007947       -2.21466862556846        0.90983409574238
O           -3.17151373976986        0.76128204792616       -1.63233233287901
N           -4.25401482716668       -0.49008841509962        0.01868899907253
H           -5.21070718205988       -1.47134852812689       -1.64896386365686
C           -5.53216747731976        0.17518435066609        0.07959185573394
H           -5.76796504622730        0.23541259252284        1.14707575770139
C           -5.60322480058197        1.58653687166808       -0.53709192073713
C           -6.57549363658427       -0.71877028245438       -0.56220418268029
H           -4.76407513284745        2.16118249972239       -0.13899449023309
H           -5.46631416633941        1.50726090271543       -1.61748903004118
C           -6.90383145521507        2.34561793384246       -0.25896733738158
O           -6.17251553960029       -1.53031449422485       -1.55628053933037
H           -7.74371914180345        1.74892630997926       -0.62580938212203
C           -7.10941207283157        2.61465290342966        1.22956857428667
C           -6.88255572201902        3.66775117062819       -1.02580013174334
H           -6.26597690064597        3.16994597312892        1.63568829871814
H           -8.01083955187767        3.20370795832965        1.37914289779883
H           -7.21778158630051        1.68922658228406        1.78845536915076
H           -6.76370508178205        3.49434711175710       -2.09284052912858
H           -7.81143877763844        4.21047864334248       -0.86963410002375
H           -6.05851561843524        4.29204928631634       -0.68587330039377
N           -7.77241887280945       -0.62769291585739       -0.18038210702848
H           -9.07170239089909        0.27998542054570        0.72557441464629
C           -8.83222875898306       -1.39438401784213       -0.79630165531689
H           -8.74553293080630       -1.40790338364706       -1.89025441742241
C           -8.85799445712555       -2.83941894857862       -0.28590668791880
C          -10.15970607720845       -0.72341082687427       -0.41303965311767
H           -8.90459245967424       -2.84813666924966        0.80116656531143
H           -9.73313343361239       -3.34456128349811       -0.68479215612350
H           -7.96006415353653       -3.36131343707647       -0.60672806527167
O          -10.03359477021555        0.20829645654835        0.52420893784159
O          -11.21168534878698       -1.02928765159399       -0.90174525619020
