42
 energy: -62.486133515232 gnorm: 0.000479522977 xtb: 6.7.1 (edcfbbe)
N           -1.96976094803319       -1.66926065108134        1.30492528417074
H           -1.00323011150236       -1.96993568393968        1.27852227177567
H           -2.54445994740872       -2.49576098890124        1.44585971223705
H           -3.11250409586987       -0.37290781110060        2.14198997471032
C           -2.34970285534449       -1.00875615791653        0.05755341131886
H           -1.55732433863628       -0.28934239158669       -0.18611000630271
C           -2.55550866586978       -1.95239221002086       -1.12609703234525
C           -3.60779358318299       -0.19988166079432        0.34412190919123
H           -3.33472463081608       -2.67640399167207       -0.89524112878516
H           -2.86581467102756       -1.38010168218015       -1.99369155606263
H           -1.63373348783458       -2.48366316592686       -1.35529210318581
O           -3.82144909637961        0.07637109455271        1.63846782359271
N           -4.33802337542611        0.16759312117915       -0.61256504447327
H           -6.21515182080714        0.02332613765917       -2.48858036542950
C           -5.55083503418501        0.92924328456476       -0.36699811813251
H           -5.62705873738062        1.23978972934465        0.68076118447428
C           -5.58142745899859        2.14951531075714       -1.29368166167564
C           -6.66096045812510       -0.05802733163328       -0.64321378852853
H           -4.82908616180107        2.85587265340229       -0.93705468819566
H           -5.27533896663010        1.84560529400221       -2.29951680846747
C           -6.94585451999698        2.84663163877514       -1.35649021246986
O           -6.86707543604580       -0.41251654284929       -1.92451675848590
H           -7.69440264075274        2.13603991304231       -1.72526161015342
C           -7.39021561714641        3.33649779151547        0.01959700741634
C           -6.87212252296601        4.01758762142768       -2.33537219165416
H           -6.63023891592959        3.97977213703973        0.45797912275238
H           -8.31264645675800        3.90601946913855       -0.06682690419407
H           -7.57088410913320        2.50112775644550        0.69066302332761
H           -6.57424198286115        3.67961426550225       -3.32573745706415
H           -7.84043332464289        4.50482779196349       -2.41841932358286
H           -6.14743247524509        4.75245702440530       -1.99130921459791
N           -7.25808659966193       -0.58700122923366        0.33110877956381
H           -7.67282141269429       -0.60301269943044        2.09486297687117
C           -8.25636384983004       -1.61801684291322        0.15198059579552
H           -8.98180992796063       -1.35053617918378       -0.62638829018739
C           -7.62453301099358       -2.96822908038325       -0.20462619402945
C           -8.99744168583517       -1.76772629624962        1.48929219765061
H           -6.86520659405814       -3.22571820179726        0.53138263016218
H           -8.39435044305792       -3.73456968913852       -0.20510882703032
H           -7.16388193400689       -2.91505724528519       -1.18764559954230
O           -8.43838621919339       -1.08899484759471        2.48316461976466
O           -9.97387313028810       -2.45210526231584        1.62244744228133
