42
 energy: -62.486133510283 gnorm: 0.000480033238 xtb: 6.7.1 (edcfbbe)
N           -1.35094593916626       -1.87204666799049        0.15663796141681
H           -1.02452160923130       -1.58513885683781        1.07340821684169
H           -0.55436767501164       -2.22310669957836       -0.36119285895574
H           -3.19610959574042       -2.41353486698102        0.46184777474252
C           -1.97497419967369       -0.75333741444331       -0.54746004708729
H           -1.44841176837664        0.20301054860469       -0.42363352311947
C           -2.08217279149948       -1.07609338205279       -2.03828961132316
C           -3.38417346163813       -0.60122742614529        0.00401277942600
H           -2.61376726421577       -2.01457828628941       -2.18106426544977
H           -2.62456896644617       -0.28245302545259       -2.54304606361127
H           -1.09131617838772       -1.16373855312465       -2.47908131192709
O           -3.89983867005866       -1.73544084972926        0.51786737058501
N           -3.94572131312903        0.51507007680689       -0.08536827726050
H           -5.20638498999200       -0.66922656552062        2.23541064128334
C           -5.29995550596829        0.84835551447747        0.29432206141441
H           -5.20909435436682        1.46782514866047        1.20003148136713
C           -5.86457307573745        1.71339233947223       -0.84195847127144
C           -6.21020999719112       -0.31505072036069        0.63478608247575
H           -5.09273452757537        2.43795725083919       -1.10520536464398
H           -6.02283473652682        1.06372342601591       -1.70300132418152
C           -7.16621729868409        2.44588620487847       -0.50210445821697
O           -6.05858983046559       -0.89642591086431        1.84479790748085
H           -7.86255297229924        1.73120652451726       -0.05406357323432
C           -6.92956876327476        3.58647458802343        0.48561147961882
C           -7.79230277007765        2.99171634627628       -1.78435568667231
H           -6.21925003324936        4.30173029350113        0.07611663396731
H           -7.86209799224121        4.10823189792328        0.68833737038361
H           -6.54087083145521        3.21905768270037        1.43213202942282
H           -8.01985104060756        2.18527345476978       -2.47706550024581
H           -8.71593045380550        3.52078057355435       -1.56176856525599
H           -7.11057334360259        3.68434288013367       -2.27335112510028
N           -7.13090568870197       -0.64001564466434       -0.15970937552425
H           -7.86169580026382       -0.55463211708669       -1.79892833213224
C           -8.04749885371826       -1.71882734294966        0.12269334913348
H           -7.53245599626258       -2.59545728581932        0.53483303575300
C           -9.14718591607599       -1.28628411477095        1.09936432223451
C           -8.71028141350881       -2.10134159826625       -1.20911298692369
H           -9.64995473896673       -0.39682456382538        0.72392169496675
H           -9.87305666422249       -2.08811717625328        1.20035178581422
H           -8.71252567836304       -1.06599333654208        2.07107250707139
O           -8.47346860190564       -1.22887535557983       -2.18178920502387
O           -9.39267994429628       -3.07829252870044       -1.34707164014335
