42
 energy: -62.486133513073 gnorm: 0.000480025652 xtb: 6.7.1 (edcfbbe)
N           -1.91045092481228       -1.32470482265093        1.46215421005870
H           -1.52819710376817       -0.57552888175992        2.02902329676465
H           -1.16051382525579       -1.96887165758383        1.24199369777542
H           -3.71095905394241       -1.48879002917428        2.04810818088422
C           -2.52462611722338       -0.79909795801743        0.24530504885296
H           -1.96979758729482        0.02958281983879       -0.21443126360358
C           -2.69088216091565       -1.92455770298066       -0.77663496661081
C           -3.92142956092604       -0.30946905813606        0.60968994738818
H           -3.24430933460340       -2.75043393174430       -0.33502879678620
H           -3.23690785314222       -1.55419265105152       -1.63883854127544
H           -1.71877865043193       -2.28772157297389       -1.10393925049214
O           -4.43245154010375       -0.92267532009591        1.69126084865190
N           -4.40847170071060        0.62251900894964       -0.06927058146392
H           -8.02689091025208        1.84707151646648        0.12843058339358
C           -5.73995108858208        1.16433401151675       -0.09520864442368
H           -5.75068198236902        2.02933969989465        0.58556719862394
C           -5.89663774933110        1.65725986993670       -1.56006456599670
C           -6.90758091612458        0.28035710207299        0.28560385108382
H           -4.90556550639666        2.01373555270091       -1.84558626400896
H           -6.11491149848107        0.78245664323222       -2.17668158362575
C           -6.91271264393266        2.76126538511000       -1.87996811247254
O           -8.11666398658220        0.90235696404769        0.29830955564577
H           -7.93521991343232        2.38750354613654       -1.75158454730451
C           -6.71335785554770        4.00762913212703       -1.01774694692896
C           -6.76179006257823        3.13677243551562       -3.35567334011915
H           -5.68686279291214        4.35764670381332       -1.10125423182416
H           -7.37421354803178        4.80411377451985       -1.35318289718792
H           -6.92402305817226        3.82636214430079        0.03510890626232
H           -6.89913128451551        2.26413582814495       -3.98958536180878
H           -7.50121224935332        3.88322935494846       -3.63655060300817
H           -5.77184929744124        3.54574910112910       -3.54423996210998
N           -6.78478821934405       -0.92083894131639        0.63129132611762
H           -5.75380812569210       -2.24991406096663        1.46325062356313
C           -7.94317320724408       -1.72346309075404        0.95440227077752
H           -8.60263946565191       -1.20482589665016        1.66421328941972
C           -8.75571010555418       -2.08413713613223       -0.29374848289168
C           -7.45961481123126       -3.02209245429543        1.61526444834005
H           -8.10051810347485       -2.51943304394233       -1.04586609543910
H           -9.51687056138053       -2.81020802357520       -0.02236746263389
H           -9.22986039035332       -1.19660017176074       -0.70412647655221
O           -6.14739511619382       -3.10453258107096        1.76817981375411
O           -8.21478142086433       -3.89335695770902        1.95335711768163
