42
 energy: -62.486133517184 gnorm: 0.000479612941 xtb: 6.7.1 (edcfbbe)
N           -1.56569372731117       -1.67791161378380        0.55288724309251
H           -0.98591064580698       -0.99505719416523        1.02939737283956
H           -0.96043601421480       -2.41429790534653        0.20975663206713
H           -3.25755022993897       -1.56478299912091        1.47765353332859
C           -2.29974660628277       -1.05667159944619       -0.55012478566194
H           -1.72483446710054       -0.29631441368674       -1.09518919878629
C           -2.77089096180733       -2.12715548829989       -1.53508769832654
C           -3.52999881805352       -0.39477332551820        0.03836935868980
H           -3.32707840067990       -2.90000479526965       -1.00875930727334
H           -3.41881725607253       -1.67157375536585       -2.27742790778972
H           -1.91997033525302       -2.58501601365665       -2.03506045519614
O           -3.93206032917346       -0.90018596229905        1.22553645140889
N           -4.10875683198645        0.52393935061322       -0.59133155312024
H           -6.09841814513242        0.21432392305982        2.09859215931111
C           -5.33880152598538        1.09468834493706       -0.07581231164187
H           -5.12231102184675        1.61945275246637        0.86664619582774
C           -5.86949004095182        2.07744968947928       -1.12432832629064
C           -6.35619465768744        0.00566904829986        0.18366618599753
H           -5.08766868601463        2.81133685853766       -1.32362686472432
H           -6.03566514269265        1.49845793240547       -2.03223862150369
C           -7.16752586137643        2.78559180937268       -0.72636396935401
O           -6.73733293064137       -0.18592968779427        1.49640285552931
H           -7.91362773634850        2.02837896100776       -0.46100543694662
C           -6.97023952192330        3.72079173892028        0.46558896693025
C           -7.69722959024841        3.57512763200551       -1.92164582367776
H           -6.18930652041625        4.44763537553868        0.25105320957429
H           -7.89141445487745        4.25965535953194        0.67524892800226
H           -6.69480857180617        3.17391220015136        1.36428747368180
H           -7.87710878044972        2.91316006188767       -2.76455792817256
H           -8.63215563763623        4.06960917294306       -1.66891674258555
H           -6.97738797159259        4.33274812326248       -2.22435619612946
N           -6.79038180996243       -0.65766735054349       -0.78309131859923
H           -8.49391320052197       -0.43224076928442        1.13232945068140
C           -7.72021170797206       -1.75457621545461       -0.73572022065047
H           -7.72041076578071       -2.17699100008067       -1.74738605368166
C           -7.35824313279080       -2.85823057055621        0.26848000792480
C           -9.15830242293080       -1.29165975399600       -0.45521351139844
H           -7.41928810293905       -2.50126458315682        1.29413355883477
H           -8.03876264038046       -3.69688847163557        0.14436396064409
H           -6.34136723025409       -3.19556510251298        0.07998084966688
O           -9.33037745099753       -0.56564281682243        0.64878258264119
O          -10.07650136775642       -1.58355278659185       -1.16697757904573
