42
 energy: -62.486133518825 gnorm: 0.000479366741 xtb: 6.7.1 (edcfbbe)
N           -0.97656847114200       -1.38854120407384        0.36821507549958
H           -0.82203352276042       -1.13550251538593        1.33861644207935
H           -0.07174867183231       -1.48424013435334       -0.07732879649717
H           -2.57567194719785       -2.39428154356042        0.37392031660215
C           -1.78801418601198       -0.37910572689615       -0.31121799110803
H           -1.55950398514335        0.65182016143082       -0.01115673972060
C           -1.61839863913328       -0.50971226971657       -1.82488130390220
C           -3.24563150995832       -0.66596875204375        0.03033545158916
H           -1.84842856750276       -1.52469628125733       -2.14214092420287
H           -2.29182108465882        0.17812008932775       -2.32707428204592
H           -0.59581991726251       -0.27576079443621       -2.11340306957948
O           -3.46275760467727       -1.97213374201862        0.34782408545011
N           -4.06187640079984        0.27313969670923       -0.01928972437727
H           -5.04874591548594       -1.93968176954065        1.03436716780629
C           -5.48082182427527        0.41189242129927        0.13910077687210
H           -5.58721101241867        0.96704807286124        1.08613783042182
C           -5.95876018544077        1.33460334106113       -1.00015149865894
C           -6.40795089480526       -0.78702527616459        0.30699816406355
H           -5.08861666404267        1.89143641185788       -1.35103274131140
H           -6.31495526889520        0.71028234751441       -1.81977976471583
C           -7.05328351048422        2.32610551539077       -0.58736884588212
O           -6.01870352887077       -1.85808165835142        1.01017002892257
H           -7.79238400650559        1.79560302496668        0.01934615369984
C           -6.47278354804194        3.47319580928182        0.23716557398792
C           -7.74412645692463        2.88490374558558       -1.83006465148217
H           -5.76554946550717        4.04631536413664       -0.35875990490865
H           -7.26500373944287        4.14217229051980        0.56540158864503
H           -5.95395957402531        3.10572965858875        1.11912336842572
H           -8.21474619473914        2.09341357923396       -2.40768121105424
H           -8.51202608278109        3.60092721500177       -1.54741026864248
H           -7.02189345234574        3.39254464304245       -2.46647645070732
N           -7.59053971321889       -0.65956469016225       -0.11967557005936
H           -8.73480277305968        0.09065347730749       -1.30368698231692
C           -8.57965359799013       -1.69438471117680        0.07104046568981
H           -8.15141584355424       -2.70162823726505       -0.01237238798278
C           -9.26476573703288       -1.56031113409667        1.43597341825921
C           -9.64309749553004       -1.51016550338394       -1.02072892649851
H           -9.67026284527826       -0.55682828244657        1.55096842693599
H          -10.07386020441383       -2.28182036668610        1.50529635914409
H           -8.54478427155794       -1.74548211830421        2.22938277699856
O           -9.53333360779649       -0.35807790954885       -1.67207461922980
O          -10.49987933890166       -2.31893789948340       -1.24669180853972
