42
 energy: -62.486133511346 gnorm: 0.000480246722 xtb: 6.7.1 (edcfbbe)
N           -1.76903412169565       -1.57180107668919       -0.99816200869796
H           -1.10541428530598       -2.31517083397652       -0.81834122143918
H           -1.23718717467121       -0.73463511839000       -1.22123045427132
H           -3.37614531275755       -1.30515402558142       -1.98896497015079
C           -2.61092690212613       -1.32546636276838        0.17331296934144
H           -2.94687377368372       -2.30204630692322        0.54498884370306
C           -1.92809778848557       -0.56406985918985        1.30562392000812
C           -3.85985341208425       -0.60377315715273       -0.31160878838578
H           -1.55961718088997        0.39377758127352        0.94397203143909
H           -2.64848338313099       -0.37691875435337        2.09423888714836
H           -1.09409776927522       -1.13865524053755        1.70305735796347
O           -4.11777937201686       -0.77523586313489       -1.62958488846016
N           -4.53622844628517        0.07171690539845        0.49942750574396
H           -5.98397567180749        0.08304211838514       -2.22044141923907
C           -5.78026021412464        0.74279499521269        0.17401546068834
H           -6.20547567852478        1.00794786117384        1.14696604135568
C           -5.51161781201972        2.01868767611200       -0.63864117062299
C           -6.76879597307161       -0.18975092611592       -0.49841746934022
H           -4.84299965034976        2.64643516044036       -0.04520395787545
H           -4.97257879600355        1.75771783172557       -1.55539686622832
C           -6.77126027214783        2.81580000818868       -0.99747379163324
O           -6.77380239012472       -0.32035092827946       -1.83440750043362
H           -7.45452687775030        2.17444678603026       -1.56495797496655
C           -7.50171867525014        3.30831986077147        0.24931530058159
C           -6.38108107930555        4.00106566431609       -1.88017739704392
H           -6.82848905666164        3.88171956372229        0.88313246530643
H           -8.33324225299847        3.94885016398181       -0.03517416996326
H           -7.89939576298422        2.47649962384676        0.82445236057565
H           -5.87773559407418        3.66541024907376       -2.78473007991777
H           -7.26392355210842        4.56455583221743       -2.17173759980788
H           -5.71110546575510        4.66839661860038       -1.34199483069048
N           -7.54847057183306       -0.83670517888865        0.25385492078483
H           -8.31007945628054       -1.09975814835435        1.86998092652604
C           -8.49347678663203       -1.79610943218439       -0.27324614537858
H           -9.04081937638550       -1.39808581309378       -1.13671709941462
C           -7.80438753590040       -3.10283099621207       -0.68287955079960
C           -9.49597751385519       -2.10783966144391        0.84793291040948
H           -7.22179332964424       -3.48957224861812        0.15113517806072
H           -8.55765687806447       -3.83393856306922       -0.96186893389104
H           -7.14231662605490       -2.92415778779576       -1.52637104716522
O           -9.14510830805088       -1.60301641482669        2.02411275555692
O          -10.48707217833541       -2.76200850310174        0.67631475271908
