42
 energy: -62.486133508313 gnorm: 0.000480219825 xtb: 6.7.1 (edcfbbe)
N           -0.82516072637638       -0.35968038697098       -0.61978778504003
H           -0.06694246289912       -0.96669331264742       -0.90620529145902
H           -0.57477483423565        0.03743458548856        0.28189610596745
H           -1.92077609750367        1.02860954790095       -1.32491288360965
C           -2.07744710214878       -1.10523921905709       -0.49989423084251
H           -2.17426750983687       -1.72220190009556       -1.40342360973463
C           -2.17385331372477       -2.00107902153865        0.73208694639797
C           -3.21409461712936       -0.08390531288108       -0.54235315620606
H           -2.04688308837568       -1.40828943270481        1.63567448944963
H           -3.15360132769120       -2.46537283505246        0.76534176027753
H           -1.40754689894868       -2.77303995655442        0.70250701197134
O           -2.88157911471221        1.07650317539753       -1.13800528824384
N           -4.32354230242867       -0.41192156093428       -0.05871706074609
H           -5.42606407277184       -0.83909708241064       -2.07580480288800
C           -5.54443872319743        0.35386957640890       -0.00657205311007
H           -5.78214957455421        0.45636895334222        1.05699866611524
C           -5.55680636006365        1.73919074501162       -0.67819976645281
C           -6.61703725482465       -0.51708607303740       -0.62704683994196
H           -4.77007606093899        2.34712760726738       -0.22955807010282
H           -5.31609466212034        1.62199249225415       -1.73821948893571
C           -6.89638959374237        2.47436633953318       -0.55175897992061
O           -6.33594196746826       -1.05279642386123       -1.83021982365206
H           -7.69388200305782        1.82717551141485       -0.93149107497513
C           -7.21401120262005        2.83341463841031        0.89743988091674
C           -6.85716551057377        3.74240884933464       -1.40388069503102
H           -6.42524109822970        3.45629625886286        1.31473752567861
H           -8.14934452431744        3.38513937619257        0.94792669043611
H           -7.31768605147497        1.94301703376780        1.51096465342747
H           -6.67202243474319        3.50277863445978       -2.44862989383261
H           -7.80408986806341        4.27252846553352       -1.33833197927527
H           -6.06701762023950        4.40627983168746       -1.05901289195985
N           -7.70808268045461       -0.69059892460350       -0.02442463493409
H           -8.92932320099469       -0.05692773347357        1.16063227942405
C           -8.77597349322747       -1.48207907434435       -0.59407548510401
H           -8.85674556347733       -1.34949735366607       -1.68037587909575
C           -8.58271738056206       -2.97131995163219       -0.28897829167840
C          -10.08591789696220       -1.01872027452672        0.06094091754266
H           -8.46112948450370       -3.11710708324249        0.78231301055471
H           -9.45445115856370       -3.52353531121164       -0.62851988382452
H           -7.69677065598222       -3.34105255639421       -0.79910361328235
O           -9.90191815255857       -0.20266725908797        1.09176685606747
O          -11.16723361131709       -1.37661938429963       -0.31478833514484
