42
 energy: -62.486133509983 gnorm: 0.000480270133 xtb: 6.7.1 (edcfbbe)
N           -1.49629000438144       -1.71622390062683        0.94385551775376
H           -1.33168265383146       -1.22134682645592        1.81446528556509
H           -0.62631946406642       -2.15471133590475        0.66574639770499
H           -3.38486782127482       -2.16159476663724        1.12826592773684
C           -1.96997461540050       -0.79831738593844       -0.08898759355804
H           -1.44355880887282        0.16591146063049       -0.10934842433728
C           -1.84968722065581       -1.46202753945036       -1.46282410966541
C           -3.44038832166320       -0.53512731101750        0.18915803539045
H           -2.40143545961536       -2.40026670297935       -1.47814836908059
H           -2.24326578319663       -0.79876116200788       -2.22797167201843
H           -0.80642879519970       -1.67111347373379       -1.68971882825853
O           -4.06798995826753       -1.51043260504706        0.86948735872081
N           -3.96294144892652        0.53512204087432       -0.21920192606310
H           -4.95852210122145       -1.03984255869034       -1.57424568302456
C           -5.37628439055686        0.80990802492550       -0.07004626536574
H           -5.56956034646601        1.13059972351565        0.95903699445548
C           -5.70143050877439        1.96364672302990       -1.03869373079262
C           -6.27268567042119       -0.37296265129074       -0.36138708539684
H           -4.96311531195602        2.74509600672716       -0.85249122908471
H           -5.54628571856540        1.60354643303214       -2.05908892537925
C           -7.11143668124814        2.54681551234960       -0.92073490096657
O           -5.84501513319346       -1.27481231589340       -1.26728521960971
H           -7.83850829802077        1.74176835248826       -1.06347078579934
C           -7.35347198141544        3.18314872998012        0.44539077340817
C           -7.32045526264635        3.58559869458932       -2.02206801785777
H           -6.62138897938028        3.96574994314799        0.63438368786307
H           -8.34598722729094        3.62526050850728        0.47971586937718
H           -7.28733292859131        2.44546223848674        1.24014018733763
H           -7.17648237217851        3.14292881661145       -3.00503721506475
H           -8.32868170886553        3.98909488648180       -1.97449351318583
H           -6.61581075001945        4.40694054912870       -1.90863632215407
N           -7.43988725499532       -0.37937127122443        0.11363144101268
H           -8.82901026113192        0.50436488016820        0.89773153518920
C           -8.38266219708403       -1.42307109586064       -0.22055978381905
H           -8.35308711605882       -1.67511298414758       -1.28875363559960
C           -8.12095399879688       -2.69428656999003        0.59438194954428
C           -9.78384858301383       -0.90106737700463        0.12544106988977
H           -8.11655152904190       -2.45843475568341        1.65657197076491
H           -8.90357292525159       -3.41992356383043        0.39183961245244
H           -7.15534254833793       -3.11288923153244        0.32230128154195
O           -9.77349877358019        0.23827724079520        0.80752937254031
O          -10.79049034106993       -1.47956921837558       -0.17694585125877
