42
 energy: -62.486133514262 gnorm: 0.000479361460 xtb: 6.7.1 (edcfbbe)
N           -2.78083977880549       -2.63461026647456        0.50567154438982
H           -3.21671402968571       -2.88146193673440        1.38852209219132
H           -1.85429479687192       -3.04472545244929        0.49107163259295
H           -4.33190451097673       -2.45516761560972       -0.65517273443382
C           -2.70688045582696       -1.18201708238316        0.35928211405186
H           -2.40038122884049       -0.65504820401300        1.27297562524020
C           -1.74117742589432       -0.82614444231759       -0.77172746395268
C           -4.09915662201784       -0.70566240276443       -0.02104243074688
H           -2.03376487668831       -1.33432955003485       -1.68823208208125
H           -1.75658844218695        0.24661685525311       -0.93869401311521
H           -0.72831387489101       -1.12794430096578       -0.51367737782719
O           -4.82949638248033       -1.61263058520126       -0.69190746256423
N           -4.43782592709764        0.46893566504417        0.26349360099707
H           -6.78000117826616        0.28800348515871       -2.18530153896341
C           -5.73114134271971        1.04087613680240       -0.04796325685699
H           -6.00904161955130        1.58376657952580        0.86358019880225
C           -5.54821686249902        2.04949378706501       -1.19039307411308
C           -6.82019319452848        0.00991317064784       -0.28891283306615
H           -4.68998040641580        2.67110517836763       -0.92773300727493
H           -5.27188315252356        1.51488982446389       -2.10687957123184
C           -6.76570280362800        2.94979133617019       -1.44321151541886
O           -7.27342820238680       -0.22465906343940       -1.53328706633558
H           -7.67379053385109        2.33790550603535       -1.49116664724205
C           -6.94192941566506        3.96909797262931       -0.32017023828578
C           -6.59894346731417        3.67283549633672       -2.77973178093396
H           -6.05316635464113        4.58957292131604       -0.22828121009826
H           -7.79122420072958        4.61500847109368       -0.53014872576470
H           -7.12038555333887        3.47765069798669        0.63243109614144
H           -6.51944607733767        2.96611270677021       -3.60378420484379
H           -7.45154625212316        4.31989960944033       -2.97022883114088
H           -5.70031615889059        4.28589033979097       -2.76666367480906
N           -7.25304003195353       -0.61051571771721        0.72089434135926
H           -7.41249119779428       -0.74341545516958        2.50534750787772
C           -8.27572040523216       -1.62653963527278        0.61642278014969
H           -9.09521603354082       -1.31073291770316       -0.04158994514568
C           -7.71707413449398       -2.95812735158921        0.10271316751903
C           -8.82985169184830       -1.85222870810251        2.03037562091433
H           -6.90063134068764       -3.28748910062447        0.74212035131999
H           -8.50514616177756       -3.70563131821747        0.11626484878731
H           -7.34507061109654       -2.83431401860669       -0.91052791915782
O           -8.11973568085484       -1.24748365503317        2.97593643563669
O           -9.79453885640640       -2.52851271757737        2.25826074727223
