42
 energy: -62.486133527967 gnorm: 0.000477490764 xtb: 6.7.1 (edcfbbe)
N           -1.22244257460205       -0.61838973036123        0.30017439320098
H           -0.45628441371278       -1.22262091375764        0.02960120503211
H           -1.23197212811045       -0.57339930156533        1.31551470129857
H           -1.95500526702164        1.08282106888374       -0.12450247044041
C           -2.49991355778787       -1.14393165922623       -0.18150079011335
H           -2.35749426907787       -1.43673063440489       -1.22973694172384
C           -3.03872753171015       -2.33559707796325        0.60543703769987
C           -3.49473812116507        0.01410900323362       -0.18438848145861
H           -3.13598272595935       -2.07516399449778        1.65734654586341
H           -4.02134593107543       -2.59710952437228        0.22865083187038
H           -2.37176907283478       -3.19012742168047        0.51073804438288
O           -2.92098599096540        1.23370208389475       -0.19531791837446
N           -4.71889628010593       -0.25256280901570       -0.18417676535901
H           -6.96355080546158        0.57211132575634       -2.39781691224460
C           -5.80844931626736        0.69871104852173       -0.20723525498093
H           -5.98189917282266        1.00221088481417        0.83285800046836
C           -5.60070381475414        1.94999464325948       -1.07021253793183
C           -7.00521062605778       -0.14501136258573       -0.62009899483852
H           -4.70872439861166        2.46213951005424       -0.70920844152751
H           -5.38639437931590        1.65086129392763       -2.10341024555669
C           -6.77999376901376        2.93335491845386       -1.03100751636994
O           -7.45803503467523       -0.08145838348587       -1.88714817162073
H           -7.72167532151124        2.39620836726691       -1.19364741639061
C           -6.86696632261221        3.63469514136797        0.32288519779419
C           -6.61644069912988        3.96978203156868       -2.14269735068419
H           -5.93654901855490        4.15467854862324        0.54098161005240
H           -7.67391981104971        4.36376962247365        0.31645961924120
H           -7.06299798243696        2.92451562316238        1.12201279420117
H           -6.59965873707209        3.49741769632031       -3.12325588060212
H           -7.43873474377983        4.68087530288945       -2.12372511554591
H           -5.68614311501082        4.51824607777185       -2.01135395098559
N           -7.47333683141253       -0.94724716918519        0.22905850158611
H           -7.55401414286528       -1.54397863588383        1.92189989654939
C           -8.54244664689792       -1.86896984214868       -0.07785843288918
H           -9.36709578577856       -1.37943049950291       -0.61080495044774
C           -8.04887489660475       -3.05672091787419       -0.91217546095939
C           -9.06305433051447       -2.40978071486945        1.26294485320085
H           -7.20015636500852       -3.52601614147143       -0.41886590949280
H           -8.85089637309996       -3.78265146252809       -1.01283750575157
H           -7.74152571504865       -2.71594344535125       -1.89724032036555
O           -8.27814566408468       -2.10718267657039        2.28919989605865
O          -10.06503956106546       -3.06220571209615        1.36339569400515
