42
 energy: -62.486133517292 gnorm: 0.000479216556 xtb: 6.7.1 (edcfbbe)
N           -1.63441467746273       -2.10065189914538       -0.14714004543018
H           -1.28651237654669       -2.03295054847348        0.80349840467994
H           -0.88506042451137       -2.45400074498553       -0.73011287850395
H           -3.53191513781183       -2.46493913282327        0.04904850997066
C           -2.09955449310919       -0.80142631488918       -0.62833992982131
H           -1.47333690553486        0.04324920073106       -0.30998242389607
C           -2.18525408609472       -0.81406329647184       -2.15486619321866
C           -3.50426918957375       -0.59346338997248       -0.08302233920825
H           -2.81507390526434       -1.63654071452884       -2.48712352534214
H           -2.61346326012457        0.12131636216356       -2.50181111679517
H           -1.19462577225897       -0.93258451949736       -2.58905828055562
O           -4.16189058402719       -1.73008743126986        0.20156976011135
N           -3.93808085481472        0.57879590584163        0.03020623880421
H           -5.34956555454665       -0.38943228119030        2.46984524431524
C           -5.28196857430222        0.93986217766906        0.42868503412026
H           -5.16561702520459        1.54549085873774        1.33992635951699
C           -5.85045213269904        1.82718600931665       -0.68796299238292
C           -6.18380169445244       -0.23298033046811        0.74421373633017
H           -5.10325810180627        2.59244790149943       -0.90354795616111
H           -5.96322530307868        1.20568730943399       -1.57679699005753
C           -7.19104903154489        2.48921721963095       -0.35688766189561
O           -6.09960378812935       -0.75797609601753        1.98836783396687
H           -7.88885492070536        1.71447179634540       -0.02564665081610
C           -7.05284954861889        3.53305250373424        0.74931257260064
C           -7.75553834709386        3.14086746166758       -1.61819622933936
H           -6.31353167090677        4.28250249207044        0.47441558290890
H           -8.00397683216847        4.03473178860070        0.91250213897206
H           -6.75134301292601        3.07894023072988        1.68990536071510
H           -7.89811246692198        2.40157969702883       -2.40237639392794
H           -8.71553671440442        3.60710667573865       -1.40965688065757
H           -7.07558060646004        3.90649659024433       -1.98573737672486
N           -6.98887108185727       -0.66090648521238       -0.12295215923924
H           -7.41443457550770       -0.80441678454440       -1.85506742645789
C           -7.84416132063928       -1.79799298944319        0.11867133800026
H           -7.33019117106811       -2.58306713664409        0.68717769221748
C           -9.11777950635912       -1.39140834794345        0.86787193916766
C           -8.24428281969196       -2.35539117499515       -1.25532479703331
H           -9.62197196063127       -0.58720136793145        0.33510427225194
H           -9.78465025004009       -2.24637591917925        0.93361501376574
H           -8.86534240089708       -1.05091303757991        1.86912527698731
O           -7.90058902716308       -1.56184860023394       -2.26302947178892
O           -8.82660013129931       -3.39440925336431       -1.39948751739939
