42
 energy: -62.486133502749 gnorm: 0.000480848938 xtb: 6.7.1 (edcfbbe)
N           -0.99567627955793       -1.47120961035076        0.43977507643146
H           -0.92198207365917       -1.33069919016879        1.44204818574452
H           -0.05715287899120       -1.50650909525650        0.05962949761217
H           -2.57464786460438       -2.47591392578233        0.21885751558608
C           -1.76916227129767       -0.39594835646988       -0.17994240900905
H           -1.56959611675728        0.59745152714198        0.24235998294636
C           -1.49918911415206       -0.36499641045030       -1.68457474185144
C           -3.24483353298796       -0.72054548488850        0.03034386747276
H           -1.70082599264628       -1.34058984052884       -2.12240039025562
H           -2.14157439065559        0.37348193943605       -2.15462662164534
H           -0.46123605156695       -0.10295778893865       -1.87847252600170
O           -3.46398983769020       -2.06008279293496        0.16527158327033
N           -4.05991083425464        0.21803049697083        0.03315632264429
H           -5.13034593702144       -2.11111626961464        0.05107952368871
C           -5.47727734858491        0.41903640881794        0.11711790090022
H           -5.62796235791367        0.96158216881414        1.05864767969588
C           -5.73582501648879        1.40596009073330       -1.05348020496550
C           -6.48304117620313       -0.72758006967648        0.10155167568963
H           -4.91398742195760        2.12378619693235       -1.01180414409884
H           -5.63573115634890        0.84456485005701       -1.98554455436091
C           -7.05700603099826        2.17625226526026       -1.08215646565972
O           -6.09885304124767       -2.00503699161186        0.03881300006864
H           -7.86759416928604        1.47515774267215       -1.28752597716318
C           -7.33665675024869        2.89472079073241        0.23426184528955
C           -7.00737262770757        3.18906399099533       -2.22658306303663
H           -6.51570531213136        3.56462204649350        0.48260550138900
H           -8.24651993732218        3.48403671557284        0.15126027948567
H           -7.46497083432442        2.18520869720119        1.04723190622040
H           -6.79981631046178        2.69370605161261       -3.17214424227360
H           -7.96028145710620        3.70453644925921       -2.31397231209976
H           -6.23062410788782        3.93035735339961       -2.04919987277551
N           -7.70921576885823       -0.41024994379827        0.10944979985846
H           -9.11526203712050        0.80164883092910        0.24003809641486
C           -8.73316393927718       -1.43305673812886        0.06438142845954
H           -8.53984133910259       -2.16447105055552       -0.73019447175926
C           -8.86947144348894       -2.18102823811853        1.39779195015365
C          -10.07156531781167       -0.73798723806309       -0.20807021597920
H           -9.03114514076331       -1.47178619780635        2.20767667862575
H           -9.71717137817964       -2.85842505372287        1.34338973020288
H           -7.96578511864717       -2.75032237277351        1.59826644732864
O          -10.04600891488955        0.57045921537721        0.02155019377946
O          -11.05821263108112       -1.32517676874050       -0.55692863749725
