42
 energy: -62.486133512331 gnorm: 0.000481034676 xtb: 6.7.1 (edcfbbe)
N           -1.36643430062516       -0.47934374434979       -1.95053779169847
H           -0.63145940404924       -1.09044270191881       -2.28422939287889
H           -0.92623268123267        0.36376491559298       -1.59269189977018
H           -3.04182324725921        0.23009330363804       -2.53290218598739
C           -2.14727000599823       -1.11997959051379       -0.89422954879840
H           -2.36654754186650       -2.14313875366869       -1.22643336466962
C           -1.45512877451530       -1.16768990251740        0.46628537666042
C           -3.48623221946645       -0.38963910523522       -0.82062139835298
H           -1.20222585559639       -0.16054314748035        0.79141550593879
H           -2.12173340941190       -1.60454319952111        1.20197401082436
H           -0.54438195419042       -1.76044583473140        0.40870985756872
O           -3.80429112068802        0.29919479448431       -1.92071865437839
N           -4.18033988681183       -0.50592147307541        0.22431984257844
H           -5.21759437336161       -2.25729013227863        0.40026703222649
C           -5.50162418787370        0.07667442813931        0.38843751309583
H           -5.62792015017577        0.14893905006418        1.47958051587275
C           -5.73499389501936        1.45829994749224       -0.23113090611030
C           -6.50337151667235       -0.95792969254105       -0.08711775688865
H           -4.80854019897884        2.03115492169949       -0.15263748460758
H           -5.96271579352961        1.33354230670993       -1.28943567121101
C           -6.86429522155866        2.23700086989047        0.45595461840294
O           -6.13195397270336       -2.24344375202000        0.07132682550436
H           -7.68709030564755        1.54532192294909        0.65742539216441
C           -6.39580526058658        2.84126983627613        1.77870401487975
C           -7.36878491825217        3.34476933513052       -0.46684446876721
H           -5.60038862168705        3.56350504594811        1.60452857260420
H           -7.21861443784252        3.35286014118049        2.27272788781296
H           -6.02028421004137        2.07655453981054        2.45454695899517
H           -7.75620874944316        2.93372212355916       -1.39547098944993
H           -8.16502663867908        3.90733504626885        0.01483232290458
H           -6.56112491694613        4.03328786659878       -0.70641250009066
N           -7.61093644715135       -0.60212888713337       -0.56489143578186
H           -8.57647311960045        0.67532115418146       -1.41627907467256
C           -8.59339894015307       -1.55748478554111       -1.02130395294732
H           -8.13322687255469       -2.42044610965825       -1.51903249367091
C           -9.46168899231991       -2.05831813292712        0.13786293724826
C           -9.49860690208580       -0.82720160562733       -2.02561917985541
H           -9.89579178397936       -1.21352307919316        0.66906213980297
H          -10.26058546717589       -2.68104057723116       -0.25466219791034
H           -8.85601614799855       -2.63887507832103        0.82945173319394
O           -9.31216760304499        0.48685323162177       -2.04653916057226
O          -10.30686122164029       -1.39212133712467       -2.70873644637353
