42
 energy: -62.486133514681 gnorm: 0.000480000266 xtb: 6.7.1 (edcfbbe)
N           -2.73577287889202       -1.71396174462108        1.82457484344634
H           -1.85082510538903       -2.19597624181147        1.92369981582259
H           -3.47627621686152       -2.39403376703735        1.98530556153400
H           -3.74316317036443       -0.22233121606841        2.40020461913714
C           -2.87596387380716       -1.14578634755759        0.48502227756091
H           -1.96373121800832       -0.57400659807805        0.27062187171917
C           -3.10370453643431       -2.17581764623262       -0.61984919401988
C           -4.03312953546552       -0.16128836995936        0.55103673685923
H           -3.98587256143644       -2.77011608691519       -0.39264745249180
H           -3.26587186651712       -1.66536530691605       -1.56264388944490
H           -2.24407228736368       -2.83714907316998       -0.70712138884030
O           -4.34054724279983        0.26087151234384        1.79092450476897
N           -4.64389290881454        0.16832820811096       -0.49810518825152
H           -7.79832398793885        1.03016388980736       -1.92690810977264
C           -5.80928677119946        1.02690800134605       -0.41374802199000
H           -5.85501466209786        1.54142503346190        0.55653408236374
C           -5.75844211056046        2.05294970141830       -1.54935814479957
C           -6.99550496364831        0.07130890997903       -0.47577186610761
H           -4.73033582008951        2.41495990639629       -1.61006535699643
H           -5.95850253417628        1.55066525640485       -2.50084653194902
C           -6.69806858127120        3.25273071209437       -1.34518262547749
O           -7.98274063190184        0.26593365927230       -1.36514144961185
H           -7.65302917610768        2.91048681300153       -0.92666221128037
C           -6.09133690859354        4.25045997824729       -0.36025392032413
C           -6.97245469024253        3.94267943583065       -2.68115573405148
H           -5.16686437343419        4.66083042308535       -0.76074161286806
H           -6.78075059770182        5.07163542330207       -0.17797054964269
H           -5.87038216572036        3.77455599335123        0.59185228059220
H           -7.45758986964185        3.26871464077455       -3.38533239956760
H           -7.61929513113501        4.80493372543308       -2.53766258424206
H           -6.04024581975312        4.28524370223233       -3.12481145759965
N           -6.95557116829688       -0.88521573235397        0.33953190856987
H           -5.92917203537734       -1.62790054515861        1.52184412013042
C           -7.86571045115061       -1.99280094726287        0.44680591370831
H           -8.79850683615522       -1.67300400341876        0.93080293989311
C           -8.19930665676638       -2.69004544943996       -0.87348737235256
C           -7.17627771873785       -2.99691806120482        1.39630531658502
H           -7.28127414121654       -2.90517103598510       -1.41719184294209
H           -8.71076280889556       -3.62401942815951       -0.65719050864094
H           -8.83461287421970       -2.06005342370523       -1.48912914128960
O           -6.03099331958242       -2.54529015592188        1.89606701369429
O           -7.62301106842091       -4.08155958061933        1.64677999271503
