42
 energy: -62.486132297391 gnorm: 0.000621202881 xtb: 6.7.1 (edcfbbe)
N           -2.50546674024694       -1.74618500111270        1.82112286056402
H           -2.70538601096849       -1.44892801051739        2.77018011875993
H           -1.53499872380618       -2.03300010552478        1.77836292569023
H           -4.17809419779969       -2.40162641024221        1.24673519426986
C           -2.77745270154628       -0.67117185508134        0.87024179239400
H           -2.45713951193579        0.32077878139466        1.21620397187071
C           -2.09768901699371       -0.97948430446739       -0.46366099028127
C           -4.29078259124210       -0.63683012354597        0.64105637159680
H           -2.41198922605663       -1.95590355655839       -0.82549531545114
H           -2.37422487816159       -0.22613048259186       -1.19473665008813
H           -1.01552371275978       -0.97970465039536       -0.34925158248778
O           -4.87932283100582       -1.82007736668423        0.87481441293279
N           -4.77007555334220        0.45120476482010        0.25610481980955
H           -8.03507102027457        1.30860466662800       -1.51297279553681
C           -6.08000702398362        0.91347372099017       -0.10470170824883
H           -6.45085516635466        1.44345763431502        0.78868921235002
C           -5.85626739828338        1.95900681252514       -1.22548039668605
C           -7.18394721639718       -0.07267095924024       -0.46090303326702
H           -4.78804542312902        2.17977214695354       -1.23219744592696
H           -6.08961472222968        1.51320405660781       -2.19658639445530
C           -6.62089857882737        3.27963158590863       -1.03819317259205
O           -8.17585815295705        0.38697756390608       -1.26632816513870
H           -7.64323291868728        3.08175655001911       -0.68811948658228
C           -5.93259472808452        4.14887086332356        0.01202604851192
C           -6.70532236970152        4.03041522103693       -2.36656955307376
H           -4.94272232439477        4.43919578177270       -0.33209413384192
H           -6.51057885040512        5.05089310831836        0.19969619099011
H           -5.82122164711812        3.61078399008218        0.94993490732274
H           -7.24481351656450        3.45174951206288       -3.11432616101101
H           -7.21984394261498        4.97938552285442       -2.23565060205703
H           -5.70670208341942        4.23272213488304       -2.74699104773882
N           -7.20527035281701       -1.23381254834423        0.01214047700514
H           -6.60703157631303       -2.51370754964630        1.28733563277846
C           -8.27242584077606       -2.16019761297385       -0.27042996638050
H           -9.24734528717393       -1.66474627752836       -0.36464059832483
C           -7.98343956130362       -2.94447505090911       -1.55593022190202
C           -8.33033045386048       -3.16232104791096        0.88998464683425
H           -7.00055059087189       -3.40697197567079       -1.49171445542784
H           -8.73656437478350       -3.71664591955936       -1.68620365377818
H           -8.00331741725713       -2.27288642562502       -2.41100561952492
O           -7.23374655580570       -3.19586627004665        1.63075632890531
O           -9.28042639345391       -3.87056757571635        1.08773321299055
