42
 energy: -62.486133512785 gnorm: 0.000480109387 xtb: 6.7.1 (edcfbbe)
N           -1.57236668127792       -0.66240079843348       -1.86336476854613
H           -0.94304521171039       -1.36090318805849       -2.23976685150127
H           -1.01226597770674        0.00621014677925       -1.34216842129954
H           -3.06157605019190        0.41585006685595       -2.43479001123436
C           -2.56330629347018       -1.27526630319272       -0.97867587963315
H           -2.98017204500123       -2.14157701808675       -1.50752429585085
C           -2.01852635354106       -1.72696721671501        0.37358568677351
C           -3.71598944599238       -0.28684439052735       -0.82521335055845
H           -1.57853156881590       -0.88330589543048        0.90158942530836
H           -2.83461378767638       -2.11681942154021        0.97126117547601
H           -1.26132042548223       -2.49772374055896        0.24283813051495
O           -3.81941949889191        0.58751631344568       -1.83986083490955
N           -4.45781325388937       -0.39577619866580        0.17970631752428
H           -7.85262656312363        0.50244203393446        1.45372573161502
C           -5.63322711995727        0.37828298094979        0.47550001333679
H           -5.63767757507104        0.46867259672698        1.57242368934340
C           -5.69216852438785        1.78418108463030       -0.16187654194775
C           -6.84137560029545       -0.43796388989557        0.07514033647054
H           -4.72783954820661        2.26192270389013        0.02603767255302
H           -5.79255522135969        1.65659983652809       -1.23992081954661
C           -6.80501234562589        2.71580872561324        0.33335559820651
O           -8.01138833261374       -0.14840219151503        0.75919055066419
H           -7.78102977355511        2.24634323081718        0.16770660356229
C           -6.65494041638024        3.06973031526163        1.81326438555150
C           -6.77761482182921        3.99802671886689       -0.49939652633670
H           -5.69914440973421        3.56074722355414        1.98346922297104
H           -7.44620641848322        3.75145985991571        2.11865873290742
H           -6.70009351021328        2.19487139256959        2.46012577126137
H           -6.91839743751572        3.77164627240383       -1.55319451548204
H           -7.56981936147452        4.67390362965350       -0.18501289133566
H           -5.82381088977344        4.50751480286719       -0.38176186593413
N           -6.73753330664245       -1.32306957802551       -0.79868021628765
H           -9.09851635716527       -0.28324742634669       -0.68223619417609
C           -7.76869532335941       -2.20255184770074       -1.28224708739904
H           -7.25498632421448       -2.91782115465150       -1.93496908112974
C           -8.51354136298303       -2.97340477866344       -0.18325841160472
C           -8.80106646730109       -1.47599974290151       -2.15821990384205
H           -9.08593140631426       -2.30491416201066        0.45620065223345
H           -9.19054511650345       -3.69066985743224       -0.64069542752174
H           -7.79250777337015       -3.50762820913610        0.43127827354418
O           -9.41354287663301       -0.43597041396128       -1.59309225803044
O           -9.06545048784345       -1.83452848078922       -3.27019665517643
