42
 energy: -62.486133508038 gnorm: 0.000480329538 xtb: 6.7.1 (edcfbbe)
N           -1.87008551704317       -1.64731218679608        1.22085279006518
H           -1.45854265137966       -0.91968673361787        1.79581887077560
H           -1.16426971605121       -2.35576670134763        1.05950379854896
H           -3.74712364358529       -1.55404734336444        1.73554571369476
C           -2.35370212065270       -1.09848601757801       -0.04419554836943
H           -1.67935134298759       -0.35905171823418       -0.49814024134734
C           -2.59637029417909       -2.23557623243903       -1.03852996399289
C           -3.68555369710531       -0.42824949530385        0.24185989141361
H           -3.29241437910275       -2.95778972640677       -0.61708422917001
H           -3.01375181137670       -1.83664409345053       -1.95816536409358
H           -1.66201289079837       -2.74313328645707       -1.26895528567652
O           -4.34520711658767       -0.91138655704412        1.30148564311209
N           -4.09355151596781        0.49266131741537       -0.51470477505927
H           -5.65532322180083       -0.07765053286606       -2.37519257555246
C           -5.41349557192131        1.06780588380564       -0.30208816294998
H           -5.55261850007320        1.33353073751867        0.75177934247100
C           -5.56175445217885        2.30256659755696       -1.19799577411871
C           -6.42464920329609       -0.00182652026486       -0.63527812983070
H           -4.90277090899139        3.08075042948188       -0.80978574761775
H           -5.20446131587075        2.05434277622091       -2.20121915735502
C           -6.99675561250852        2.83470488114944       -1.28327779367467
O           -6.36650882816207       -0.51041642859070       -1.88415772935579
H           -7.64309544999538        2.04471116257954       -1.68303919861611
C           -7.52954212347351        3.23882905823393        0.08903155110592
C           -7.04298883487545        4.02506219314254       -2.23975887762432
H           -6.85975087029030        3.95484218331284        0.56064942940572
H           -8.50886870372759        3.70061636382582       -0.01148150337620
H           -7.63025370224880        2.37180546492267        0.73591087016297
H           -6.67629229513042        3.74681833274256       -3.22549292542118
H           -8.06233261254234        4.38826051650430       -2.34500266440498
H           -6.42688652805348        4.83785768555633       -1.86114709621285
N           -7.21656978652603       -0.41263254275783        0.25084303237405
H           -7.95207202860713       -0.27021195964743        1.90121481441467
C           -8.15426559173644       -1.48497648497421        0.00508007298223
H           -8.68722216051040       -1.35535801143771       -0.94496536405177
C           -7.45571180297009       -2.84972076467233        0.00252481060100
C           -9.17001536273924       -1.46662505856131        1.15662715969304
H           -6.87851701058448       -2.96758470674476        0.91762614699858
H           -8.20211698414883       -3.63692256506885       -0.05544143502286
H           -6.78675566937054       -2.92069461202167       -0.85160944552552
O           -8.80028293638006       -0.69509932012991        2.17113789431660
O          -10.18237647791004       -2.11034180186024        1.14815231133912
