42
 energy: -62.486132342430 gnorm: 0.000612019111 xtb: 6.7.1 (edcfbbe)
N           -0.98953730459295       -0.57120650407203       -0.87567210161270
H           -0.26978636107471       -1.25500709060669       -1.07504040604492
H           -0.62320669031886        0.06035413964540       -0.16833323703588
H           -2.16738674087940        0.58654248429394       -1.79342972980092
C           -2.20492544352677       -1.21701244219981       -0.37976393284278
H           -2.40368137946827       -2.08145487919542       -1.02620777705066
C           -2.13346570337062       -1.68048146387899        1.07228813666199
C           -3.35563178062474       -0.23567711300860       -0.59444482837139
H           -1.90267950150349       -0.83870333105951        1.72229387581009
H           -3.09527770077250       -2.08553145613886        1.36732452425007
H           -1.36592067560494       -2.44241728454855        1.19223257072767
O           -3.10754754559094        0.69808834713207       -1.53813494319779
N           -4.41415032537442       -0.40565656608473        0.05482246298479
H           -5.58500820203649       -0.44934704473867       -2.21428569972801
C           -5.60892787864388        0.40337533612495        0.02212868108412
H           -5.89854487752228        0.50931660767581        1.07288719420937
C           -5.53115388023366        1.79159074055160       -0.63198252573840
C           -6.67511408012926       -0.43753259647440       -0.64679363358883
H           -4.72899370451983        2.35272287491806       -0.14833862587101
H           -5.26614316658251        1.69153784384642       -1.68724615289482
C           -6.84235504785544        2.58059306423153       -0.52843805639784
O           -6.43514575961740       -0.80415836952223       -1.92136856055714
H           -7.65296227105754        1.97049140795649       -0.94252141903779
C           -7.19137613237690        2.92917837774364        0.91618820755129
C           -6.72559973754216        3.85918762784469       -1.35760971228070
H           -6.37509999003219        3.47757818325738        1.38223085373512
H           -8.08174756026143        3.55267390563812        0.94299887691877
H           -7.39207284896188        2.03584681329113        1.50072593307327
H           -6.51155159177121        3.62929410299704       -2.39912980248463
H           -7.65330104673813        4.42460921181999       -1.31720451533153
H           -5.92417558184712        4.48682500858348       -0.97313562635631
N           -7.71377378281309       -0.75573151579783       -0.01283346560121
H           -8.86994471449443       -0.43402429394078        1.35307379065233
C           -8.76273967327296       -1.54515539330052       -0.61954378366736
H           -8.94507461839167       -1.25547812508702       -1.66228814327022
C           -8.43432549549754       -3.04133401626350       -0.57235239903035
C          -10.04264429406270       -1.30335675130932        0.19394173168766
H           -8.21020219492704       -3.33956259649111        0.44967178993614
H           -9.28911891226453       -3.60760909190156       -0.93131807611711
H           -7.57097817598119       -3.24996098871146       -1.19914040848707
O           -9.83156427681112       -0.64759549616616        1.32898344166223
O          -11.12335461015702       -1.68783743708303       -0.15629946708331
