42
 energy: -62.486133514527 gnorm: 0.000479805796 xtb: 6.7.1 (edcfbbe)
N           -0.89160714420506       -0.10102059637768       -1.22138695648535
H           -0.12707189605410       -0.63201489949604       -1.62136748293852
H           -0.56352339061810        0.30135281620018       -0.34763705400804
H           -2.23611061667721        1.16813410255633       -1.80137264519275
C           -2.05026016698376       -0.95623785158637       -0.97083710363693
H           -2.24226929294853       -1.51278835707894       -1.89825997700346
C           -1.87459566048997       -1.94459687987590        0.17982647296257
C           -3.24686234006303       -0.02871540232288       -0.76987021821393
H           -1.79211722673456       -1.41285102415286        1.12502331892048
H           -2.72768792865095       -2.61206012328969        0.23178693871735
H           -0.97556084477789       -2.53874582471869        0.02687592275152
O           -3.13413233172640        1.14189554739267       -1.41357007564485
N           -4.19467743932549       -0.42328828373467       -0.04850477727626
H           -5.11355453898691       -2.01831604499393        0.62359742713315
C           -5.45936288418815        0.22631102630958        0.22546721745039
H           -5.44119882805261        0.44574351072522        1.30433894299229
C           -5.82495120842685        1.49916824654136       -0.54114367877534
C           -6.48045028330798       -0.88669754261071        0.03499317437690
H           -4.95035747613461        2.14604271022621       -0.59480375372976
H           -6.09730226721407        1.21694692872142       -1.55904955869973
C           -6.97409738188030        2.28196344216746        0.10857421682961
O           -6.06956158483187       -2.09714254980665        0.44645076712708
H           -7.74557917526412        1.57482191453119        0.42477691351382
C           -6.49015424633716        3.05900686905607        1.33170642484769
C           -7.57995514480323        3.24847517583248       -0.90728588697576
H           -5.73497285108980        3.78782582327537        1.04349424511193
H           -7.31917102593316        3.59095479099404        1.79294006317614
H           -6.05933140581246        2.39773237737124        2.08000501453494
H           -7.97857645284453        2.71378723796068       -1.76578640486985
H           -8.38912406251694        3.81725830205749       -0.45528671484091
H           -6.82451074766322        3.94848199847181       -1.25872876152409
N           -7.59916374404031       -0.65581229220225       -0.49193182217598
H           -8.63776525328650        0.40725187208267       -1.52824244010250
C           -8.57690688366180       -1.70030138433674       -0.69534557197456
H           -8.11549941667820       -2.63445262128496       -1.04016629813674
C           -9.36867558458646       -1.98367695160516        0.58580918621654
C           -9.55398004608569       -1.19917866513258       -1.76950737825122
H           -9.80069812868010       -1.06069493247304        0.96750543620249
H          -10.16747720722878       -2.68646999287168        0.36630508161729
H           -8.71063170500809       -2.40674187507645        1.34064550142562
O           -9.39969395366080        0.08555116637042       -2.06626622662124
O          -10.38701149666696       -1.89892763589211       -2.27483647064001
