42
 energy: -62.486133511799 gnorm: 0.000479912007 xtb: 6.7.1 (edcfbbe)
N           -3.10334291636350       -2.15488987442495        1.42764712834229
H           -2.42871898828003       -2.78032688667390        1.00191673659800
H           -3.92088586583776       -2.70756452282710        1.67522424042819
H           -3.05551917947759       -0.71536243494758        2.65679886696447
C           -3.47682761384698       -1.08300022611163        0.50674548283034
H           -2.53840154663904       -0.56934274116220        0.23293343388578
C           -4.12054502923511       -1.56895539105066       -0.78740922867422
C           -4.19364005766985        0.00208236915694        1.34949705590290
H           -4.94435280428254       -2.24345144940726       -0.57836636653781
H           -4.48103176451475       -0.73458443331008       -1.38157838769176
H           -3.37976870243996       -2.11133910911867       -1.37535688109709
O           -3.62227184055877        0.08010765999797        2.56024627437519
N           -4.96515144863070        0.94272819923072        1.05029412549174
H           -7.34383035134401        0.99122813836097       -1.91424662714645
C           -6.04074414506530        1.19463105409709        0.15699524222043
H           -6.77836275367501        1.75268478179834        0.75892202888076
C           -5.55584982540503        2.12521439430426       -0.98483089840182
C           -6.80494592103388       -0.01538777294534       -0.36681521805777
H           -4.60952099979784        2.56120560179130       -0.65970242464206
H           -5.33644086600419        1.53411588443336       -1.88038128062199
C           -6.52345764977357        3.27227925717543       -1.32083298425724
O           -7.49953873347160        0.12610532792482       -1.51367204825962
H           -7.56029192144573        2.90989425798206       -1.29775266121919
C           -6.39849493303139        4.38954844424901       -0.28732693600376
C           -6.23453692863805        3.81457425652773       -2.72021653614048
H           -5.41180277042016        4.84327109257173       -0.34357698594690
H           -7.14308604703905        5.16143911392865       -0.46771512493830
H           -6.53694837686099        4.00418778889700        0.71942701435309
H           -6.37548132841532        3.04831014311087       -3.48115992071504
H           -6.89762862981312        4.64527709282208       -2.94915411367676
H           -5.20851027735837        4.17053222845437       -2.78029076037400
N           -6.84988755088359       -1.04058168482782        0.35936990854577
H           -6.14221734493607       -1.84099531232867        1.80102374589593
C           -7.59624634754592       -2.25050250348364        0.11496847805128
H           -8.59769044828625       -2.11607240505500        0.55126248653408
C           -7.75246759560220       -2.73068433386222       -1.32713431251976
C           -6.91389525493852       -3.33199047502499        0.97717177660738
H           -6.79259436179032       -2.72798982185565       -1.83871676685791
H           -8.13261503439306       -3.74893907040369       -1.30734465570678
H           -8.44118035150213       -2.09568966636171       -1.87552392313673
O           -6.12375918229787       -2.82404615464051        1.92092281680374
O           -7.07268547027897       -4.50941188382980        0.81989393763735
