42
 energy: -62.486133509261 gnorm: 0.000480155731 xtb: 6.7.1 (edcfbbe)
N           -0.87497484747235       -0.51824651015183        0.50660933188523
H            0.07881375741525       -0.51696576025967        0.16690697646629
H           -1.00500706498094       -1.36791399786718        1.04908581148774
H           -2.11335028460069        0.66198628998673        1.38881291529899
C           -1.82953382806034       -0.48022311511986       -0.59972660688901
H           -1.48471368708252        0.28702755361554       -1.30447774844576
C           -1.99914602148005       -1.80311732057092       -1.34556676674786
C           -3.15145853414317        0.01861398332103       -0.03277021012135
H           -2.30438418096199       -2.58923771738416       -0.65646532143750
H           -2.76111644587534       -1.69273743823596       -2.11013626986681
H           -1.06243220269906       -2.09574410862462       -1.81531347191368
O           -3.05378544293584        0.69774762020148        1.11914565498473
N           -4.22012490149629       -0.19445930528128       -0.66487842846380
H           -4.97269636553699       -2.00525810813694       -0.42478656272553
C           -5.49510508313548        0.26625838115951       -0.15154203238113
H           -5.42396950790027        0.48672525938133        0.92494231936019
C           -5.94974149552371        1.53215910089386       -0.89212179513342
C           -6.47352197020443       -0.87956929453885       -0.31623851695504
H           -5.06674728323886        2.13701893557464       -1.10928087526138
H           -6.39132669658701        1.23101334191089       -1.84239749457697
C           -6.95011641911608        2.36921276781364       -0.08556110041985
O           -5.93314086992034       -2.11173588298413       -0.30481533143211
H           -7.64388260175206        1.68655125869561        0.41334490336572
C           -6.23160972404256        3.20317727609106        0.97381979171010
C           -7.74361263717542        3.28343941307846       -1.01677643300825
H           -5.59296898740386        3.94611886606693        0.49972947785533
H           -6.95190566643183        3.72241370212567        1.60155717511211
H           -5.61041919612887        2.58024932280662        1.61275078772053
H           -8.30759850172351        2.70574821095591       -1.74467408484826
H           -8.44396702744791        3.88851107900175       -0.44613843034425
H           -7.07246711875642        3.95186612445631       -1.55247854061007
N           -7.69940452150453       -0.65203312409263       -0.49168106944886
H           -8.98413838837600        0.48178253132406       -1.09217187467920
C           -8.65093736347491       -1.72366331610775       -0.67368662540148
H           -8.23675066687139       -2.54448586954420       -1.27377674335406
C           -9.12559993897185       -2.28573331468320        0.67055832818619
C           -9.86270563280537       -1.13321379914251       -1.40971333918288
H           -9.50355019509400       -1.48062825923524        1.29757666697093
H           -9.92016138209849       -3.00610701320415        0.49788810263884
H           -8.29812749294163       -2.77357845715075        1.17992803475291
O           -9.83050396114713        0.19044911341813       -1.50675729875849
O          -10.75830088116886       -1.80544428017629       -1.83978829984593
