42
 energy: -62.486133494151 gnorm: 0.000482510025 xtb: 6.7.1 (edcfbbe)
N           -0.71596504512100       -0.12117728750846       -0.25400007743847
H            0.09708583297644       -0.45819821471603       -0.75408673415744
H           -0.55823594084173       -0.28716688640398        0.73611256157095
H           -1.81125888543419        1.41581448080814       -0.14056834505184
C           -1.92823471112831       -0.81350436077419       -0.68723232405421
H           -1.90044536509082       -0.86678909848415       -1.78340705395636
C           -2.08649376325531       -2.22163319333923       -0.11607716375583
C           -3.11265033245844        0.08116123501855       -0.32363135537711
H           -2.10632534960179       -2.18262030092315        0.97117079744282
H           -3.01810694950701       -2.66031846883985       -0.45673859279595
H           -1.25843319023933       -2.85294569947130       -0.43243365413063
O           -2.78812975751089        1.35563848910906       -0.07220039438494
N           -4.25873103590540       -0.43272785704775       -0.27327882337898
H           -5.21858860257074       -1.48995676749758       -1.50564329605476
C           -5.50494771738290        0.26035480365042       -0.03090677040978
H           -5.63483200503513        0.40298722232532        1.04587319216947
C           -5.61819286292718        1.62192045889796       -0.74676347485693
C           -6.58692723998237       -0.67283436974896       -0.54458834948067
H           -4.81344774332804        2.26161672129789       -0.38407300601456
H           -5.45704271207222        1.45301010204111       -1.81582684857114
C           -6.95138372337261        2.34926389924403       -0.55052822024156
O           -6.19456174587808       -1.55096841554540       -1.47645473812583
H           -7.76224914278547        1.71028460408270       -0.91115464496833
C           -7.20653283751617        2.68154183395075        0.91721070001889
C           -6.94590625352192        3.63259099267555       -1.38051715669102
H           -6.39795744604335        3.29301707079485        1.31320728723676
H           -8.13681055835094        3.23496751657194        1.01774973807937
H           -7.28540130023594        1.77824535245958        1.51571938505642
H           -6.78814716297252        3.41230688923559       -2.43391929317860
H           -7.89599784202953        4.15097370723183       -1.27924893552441
H           -6.15322442127436        4.29905531061568       -1.04624750572972
N           -7.75771732012572       -0.59290401905340       -0.08349773360946
H           -9.05176066120832        0.40824591654617        0.72045832822523
C           -8.81944749332747       -1.44763545603975       -0.56919570162582
H           -8.76739045006500       -1.59360999946631       -1.65564658165387
C           -8.78759667196986       -2.81850197477060        0.11537052642708
C          -10.15120836054248       -0.76452281707039       -0.22695842778362
H           -8.79288241057475       -2.69272421018377        1.19618961591673
H           -9.66253423314236       -3.38947617544552       -0.18206390699663
H           -7.88774084661920       -3.35508455770367       -0.17477879560228
O          -10.01866579960340        0.29056677355423        0.56790870830416
O          -11.21117120173921       -1.16028910811437       -0.62636792357333
