42
 energy: -62.486133511400 gnorm: 0.000480048395 xtb: 6.7.1 (edcfbbe)
N           -1.21067255241313       -0.71834554243621       -0.13825924957102
H           -0.52566972776546       -1.44691438695584       -0.29959741442759
H           -1.01628253061475       -0.31418780578533        0.77419305487467
H           -2.00086381832193        0.77859281593043       -1.02232188795885
C           -2.56716542509909       -1.26564497215805       -0.15493752747837
H           -2.64999651347550       -1.89872169312821       -1.04809706555995
C           -2.94287464320880       -2.08296459235615        1.07761753623139
C           -3.52541646137830       -0.09513509856625       -0.36342719677023
H           -2.82885728062615       -1.47912997995400        1.97547172447950
H           -3.98097365946018       -2.38707622230839        1.00250894996113
H           -2.30941045034030       -2.96399402859867        1.15893288150543
O           -2.95585029382226        0.98122132847295       -0.94427781189884
N           -4.71948334870930       -0.23933200786077       -0.01535290013551
H           -6.79755431461403        0.56334224870768       -2.39014003080239
C           -5.80374344812449        0.70545154573414       -0.13074069433671
H           -6.04330409314677        0.97925164230138        0.90486210820607
C           -5.57870859326803        1.97993303644164       -0.95280904803581
C           -6.96505329267684       -0.14970429151001       -0.61711010930689
H           -4.71997472098628        2.50542846394233       -0.53380956622303
H           -5.30269862493688        1.71906632758749       -1.98051583810614
C           -6.78801846645577        2.92726600065689       -0.95006374753263
O           -7.31577165244047       -0.10075780679586       -1.91721476003655
H           -7.70291832725047        2.36255035328404       -1.16468009183073
C           -6.95918570872847        3.60048472774774        0.41003223452057
C           -6.60985853129697        3.98871796778237       -2.03543767583651
H           -6.06290011034675        4.15882647209367        0.67229285386418
H           -7.79770529073663        4.29244735706389        0.38305870448917
H           -7.15314251470655        2.86897961463661        1.19021716057841
H           -6.53917992097438        3.53520758780938       -3.02238862648297
H           -7.45289969404228        4.67540386003201       -2.03791296461748
H           -5.70208719693757        4.56096471943327       -1.85670584877631
N           -7.49416364380799       -0.94546938932823        0.20108102040425
H           -7.72853178088383       -1.51538832350025        1.89725230701676
C           -8.53403774778378       -1.87161520358785       -0.18329451436386
H           -9.30615926223525       -1.39125468113988       -0.79735707050124
C           -7.96837048966744       -3.07308365194279       -0.94936581783682
C           -9.17517534871469       -2.38832553764961        1.11375842087509
H           -7.16712358306882       -3.53283541834276       -0.37443314607143
H           -8.75850242296134       -3.80134472398339       -1.10932757676963
H           -7.57401530418223       -2.74861774253566       -1.90874165635022
O           -8.48695448928521       -2.06921082045635        2.20243388149675
O          -10.18493596162950       -3.03610797267232        1.13354210555425
