42
 energy: -62.486123801640 gnorm: 0.000707774685 xtb: 6.7.1 (edcfbbe)
N           -0.86093491097259       -0.72999548257680        0.21572892894061
H           -0.50937767489555        0.20320753342715        0.40350177619062
H           -0.08369035068189       -1.29704109624903       -0.10164337903726
H           -2.30205945994637       -0.92367912161711        1.45888617685758
C           -1.92104937882892       -0.69215447847738       -0.79179705162628
H           -1.74569019389056        0.03198824597506       -1.59811765070193
C           -2.11354680788429       -2.08207584737813       -1.40058134055131
C           -3.19978652745145       -0.30873226358884       -0.07354735251705
H           -2.29316066755619       -2.81536110600165       -0.61678909983830
H           -2.96460183168399       -2.06830357068990       -2.07485996212132
H           -1.22720893376844       -2.37658907868963       -1.95826519605734
O           -3.21767757419967       -0.64462521505145        1.24471262880264
N           -4.14877372304614        0.21224455551960       -0.70381943670975
H           -4.97578115211523       -1.54511069829531        0.98542346166386
C           -5.38982237298212        0.58370113998976       -0.05064826857175
H           -5.20716877257799        0.84270838240023        1.00561092973167
C           -5.98175692424792        1.77733781621968       -0.80099036307711
C           -6.30017875889097       -0.62658954728515       -0.05731132078708
H           -5.17830774707383        2.49665297983077       -0.96922463301139
H           -6.31618130519748        1.42015328628976       -1.77433707333219
C           -7.13768357235755        2.46286691788907       -0.06376172656371
O           -5.84194203953867       -1.71930583346569        0.58549928697464
H           -7.80006430784394        1.69025232991627        0.33694524143064
C           -6.62753474870061        3.32132001057547        1.09259377977843
C           -7.93299211251219        3.32934684756506       -1.03846501215867
H           -5.97506153672503        4.10864128064564        0.72006291261338
H           -7.46063104027610        3.78705678969918        1.61397159145337
H           -6.07078859675756        2.72753981520696        1.81343514375324
H           -8.35643543803501        2.72720818757879       -1.83833376403436
H           -8.74768756458269        3.83177460605146       -0.52233700860220
H           -7.28997175239259        4.08715365253793       -1.48118605415683
N           -7.42464522716947       -0.57692938112544       -0.61835434806201
H           -8.54457830249243        0.24831458984557       -1.76360866753609
C           -8.32437615633432       -1.70635754184432       -0.64842622262384
H           -7.79990188925201       -2.64266468412938       -0.87659318212768
C           -9.07392037941163       -1.86996827827905        0.67853089197481
C           -9.35408707492729       -1.42890443143386       -1.75511120651948
H           -9.57140300523633       -0.93850687402597        0.94190908262395
H           -9.81883281232687       -2.65379427882626        0.57487200277089
H           -8.37586815367022       -2.13597898406654        1.46833819983599
O           -9.29667597114403       -0.19076792813425       -2.22914874595745
O          -10.14435451291796       -2.24805909510733       -2.13382890264205
