42
 energy: -62.486133520772 gnorm: 0.000478998287 xtb: 6.7.1 (edcfbbe)
N           -1.51355876499409       -1.62393791122975        0.63733279355610
H           -0.55160745048787       -1.84649173633468        0.41209898973245
H           -1.99810707131328       -2.50319223767342        0.79907135059545
H           -2.54609889300880       -0.46591695594398        1.76675201534139
C           -2.15346995278355       -0.90239376397916       -0.46337695904086
H           -1.46223124266789       -0.11059965615339       -0.77943593359474
C           -2.51942940264772       -1.76355671795736       -1.66975610970347
C           -3.38010614626400       -0.20771793417170        0.10289658741279
H           -3.16679435533461       -2.58219620730358       -1.36203560667059
H           -3.05848668227589       -1.15733208528995       -2.38927213672830
H           -1.62430242657169       -2.17358728073253       -2.13294354547273
O           -3.37585295455987       -0.05445382311454        1.45040600835588
N           -4.29674169474450        0.18131946388554       -0.66131286967672
H           -5.92249980164151       -0.11060599650896        2.01611779031533
C           -5.43473096963322        0.89783411435186       -0.12061502068221
H           -5.17062505674521        1.41409548313898        0.81440222819575
C           -5.90848459210546        1.89863184646474       -1.17751838158291
C           -6.49884553120960       -0.13769568579664        0.15754772107292
H           -5.07993221126783        2.57052619959029       -1.40812428398631
H           -6.14122132854496        1.31818422915909       -2.06912729859047
C           -7.13733749200759        2.71137605223186       -0.75948861213199
O           -6.63342651877741       -0.49644100059821        1.48720846849611
H           -7.92567557496482        2.01641086633567       -0.45121024989666
C           -6.83254970363113        3.65840604078570        0.40016410802826
C           -7.64614943305876        3.50862047400517       -1.95863957124102
H           -6.01311815219373        4.32532639883443        0.13918189063449
H           -7.70660922785450        4.26381671537053        0.62894438127913
H           -6.56060158501348        3.11479406498769        1.30171276282186
H           -7.89737263278612        2.84169804870654       -2.77902865846275
H           -8.53583199050833        4.07385888430525       -1.69141857728261
H           -6.88467215113971        4.20669511704838       -2.30060767135153
N           -7.11773746992924       -0.66896652039836       -0.78765988975693
H           -8.44834763051477       -0.64234656098857        1.41923306891782
C           -8.08809763938526       -1.72814876787696       -0.71043839975679
H           -8.28852209427992       -2.01263601916931       -1.74979208636120
C           -7.61909179539822       -2.96665144099786        0.06654355622615
C           -9.42655073660193       -1.25922043458460       -0.11884841488641
H           -7.47242940186824       -2.74455475966669        1.12135588911445
H           -8.36080504532509       -3.75572444128118       -0.02861286308694
H           -6.67624760373833       -3.31436517817845       -0.35007783465458
O           -9.36194058471938       -0.68289669846534        1.08109925494010
O          -10.46995026325425       -1.42198998777766       -0.68379277857293
