42
 energy: -62.486133495883 gnorm: 0.000488540544 xtb: 6.7.1 (edcfbbe)
N           -2.10770161351663       -1.37018091318378        1.42603701848579
H           -1.54017638313163       -0.55122622752856        1.61580413790282
H           -1.50324693659165       -2.18248415327519        1.44275125776029
H           -3.86111999770550       -0.88663746064992        2.13189052683608
C           -2.78354919528137       -1.24897916883330        0.13702679605142
H           -2.15660548049980       -0.83007870888443       -0.66257687175113
C           -3.31038567079948       -2.61791776237343       -0.29913674809361
C           -3.98186919468049       -0.34228180213712        0.34395987815314
H           -3.94907100508461       -3.03587022526695        0.47676300163997
H           -3.88522648119486       -2.51164255597552       -1.21456574327932
H           -2.48430553122964       -3.30255763758060       -0.47967576850189
O           -4.47799378823307       -0.35030921237957        1.59142032958683
N           -4.44699993374271        0.30675355394112       -0.62829002988287
H           -7.05849501054278        0.67030389058202       -2.45941759359435
C           -5.66572861870227        1.08361421656634       -0.45744577721907
H           -5.73992488011903        1.45217804919829        0.57331721503895
C           -5.64355470101214        2.24902839636145       -1.44600652232458
C           -6.79587407393845        0.08863215522643       -0.65394629703241
H           -4.74268319138291        2.83046467393555       -1.23978478186879
H           -5.52306138387803        1.85684892046661       -2.46109011874719
C           -6.86789934426457        3.17148079916796       -1.36197124125777
O           -7.42211059673142        0.02060331493198       -1.84404407033099
H           -7.78384738882461        2.56920389048448       -1.36093700763627
C           -6.84852105473017        3.99894912089484       -0.07852576808991
C           -6.89949843467110        4.09739227768773       -2.57762222577168
H           -5.94546839228732        4.60382903387734       -0.03089470174313
H           -7.70828900499980        4.66421097320812       -0.04729648734085
H           -6.88446203421940        3.36042939629487        0.80003663155136
H           -6.95646627059105        3.52942124024920       -3.50437728334359
H           -7.76247372749814        4.75723917622612       -2.53074678760793
H           -6.00132243665676        4.71040913236890       -2.60740285327353
N           -7.02764263830797       -0.68994607309905        0.30569092755237
H           -6.41425368835726       -1.27656330590000        1.90956406135489
C           -7.95888784368302       -1.78809651236690        0.28690872695831
H           -8.99039196891882       -1.42243177933738        0.20664496874033
C           -7.70641533369458       -2.80730850049714       -0.82950314627953
C           -7.80770627898813       -2.50578413844548        1.64146373550019
H           -6.66332842531027       -3.11841773766907       -0.81608538310133
H           -8.33797077784155       -3.67564627484157       -0.66283660434974
H           -7.93356382218411       -2.37338600752996       -1.79896086756227
O           -6.82043903977524       -2.04063987609630        2.39227315069499
O           -8.50765967529578       -3.42463197992733        1.97052350452928
