42
 energy: -62.486133513162 gnorm: 0.000480118045 xtb: 6.7.1 (edcfbbe)
N           -1.69747160657394       -1.65297532748678       -0.84703708515923
H           -1.67767449126243       -2.21564899132703       -1.68716638425131
H           -1.30438943569877       -2.20629259199035       -0.09282052784693
H           -1.14193487045106       -0.02540172946835       -0.25331509241461
C           -3.05595054550443       -1.21569718858890       -0.50909136461298
H           -3.67534353192472       -1.27853643926993       -1.40691207539887
C           -3.67588893519634       -2.06569988504478        0.60396363371874
C           -2.97123234276768        0.25271737732674       -0.01817143875375
H           -3.05987851060269       -2.00577157513914        1.50032869207442
H           -4.67128924917802       -1.71077771052748        0.85345081506503
H           -3.74485975875315       -3.10667648267680        0.29078367091516
O           -1.71379139628345        0.68475644072863        0.11676325030544
N           -3.87904755138751        1.01590506334881        0.39349849930348
H           -5.10457430507780        0.32212669855653       -2.06353483349467
C           -5.29174482683490        1.09236251005099        0.22118049816207
H           -5.70759576787437        1.20128209965130        1.22963568769667
C           -5.56814002778535        2.39457304296389       -0.56508834844730
C           -6.03441301830757       -0.05130897481906       -0.43487432197934
H           -5.11967352155561        3.20849164262587        0.00456960872151
H           -5.03857843478527        2.34974385270282       -1.52249117129557
C           -7.05056518494282        2.68983673660809       -0.81836375585368
O           -5.72021858369129       -0.33968124859577       -1.72114901335539
H           -7.49743695709223        1.85228959202562       -1.36659657417915
C           -7.82075886317975        2.87462413799930        0.48593379480750
C           -7.17000636046312        3.94510877498280       -1.68177316329035
H           -7.35995378244639        3.65227693804452        1.09067213962579
H           -8.84684620516724        3.16540576963991        0.27470370105003
H           -7.84504660149048        1.95202803097085        1.05878796439610
H           -6.64289504287546        3.82164078255391       -2.62558511748495
H           -8.21366343288867        4.15696209052185       -1.89991005170831
H           -6.74667805776586        4.80152414671003       -1.16196308604481
N           -6.99453988839226       -0.59692232951815        0.17179072724672
H           -8.23542603576639       -0.56917562677308        1.52976769765552
C           -7.82919841187131       -1.59051641402703       -0.46597165330570
H           -8.03634714688989       -1.33377213174482       -1.51303646063325
C           -7.20038545728124       -2.98715740667572       -0.41859136668136
C           -9.15707345533717       -1.63608107051399        0.30470966789253
H           -6.93990748282273       -3.24523755209140        0.60608332893691
H           -7.91596119444131       -3.71192510657955       -0.79652747996407
H           -6.30387885909148       -3.01185808965761       -1.03302704999868
O           -9.12521092280785       -0.98186432119811        1.45976561056545
O          -10.12072121245009       -2.22670149793133       -0.09445484307187
