42
 energy: -62.486133512777 gnorm: 0.000479768607 xtb: 6.7.1 (edcfbbe)
N           -1.36293564794300       -0.76765200006651       -1.63234933298243
H           -0.74073880222000       -1.50345443050722       -1.94423977977176
H           -0.80995893570681       -0.10550902393776       -1.09491772232686
H           -2.74903943091861        0.37529779415994       -2.32017965590930
C           -2.43582866014446       -1.30824713325523       -0.79882781846797
H           -2.85460717585460       -2.17266951312371       -1.33009181290185
C           -1.99924141067145       -1.74124776238070        0.59839182333418
C           -3.54896972605472       -0.26323556269498       -0.75012954790816
H           -1.56285038823299       -0.89926844686347        1.13211380076664
H           -2.86510782794145       -2.08560892971656        1.15264686054165
H           -1.26493510133779       -2.54238996398174        0.53779807669734
O           -3.53717188679581        0.59293366455301       -1.78229620877269
N           -4.35952500965971       -0.31085742377038        0.20638491347171
H           -7.10719703624849       -0.13407338368853        2.15501335350659
C           -5.51729911256359        0.52443926172711        0.41036012266200
H           -5.44539309340361        0.84788783551323        1.46013227751729
C           -5.70074041019966        1.75195947547733       -0.49436428763392
C           -6.72126324087812       -0.38417638980425        0.26212239504552
H           -4.79940273416835        2.36468525066190       -0.44685408536885
H           -5.81622722584255        1.38955998872837       -1.51507548349433
C           -6.92031077571652        2.60206209462283       -0.11766160992279
O           -7.50360710635919       -0.56340283777741        1.38739239262393
H           -7.78870040413512        1.94440278547173        0.00491602524386
C           -6.69941060104484        3.37754370921913        1.18045096767391
C           -7.22896330343694        3.57687385121873       -1.25220299400538
H           -5.85139961829003        4.05122545784913        1.07522496533543
H           -7.57940506481541        3.97105669178519        1.41832970194737
H           -6.50527952902703        2.71612404162503        2.02216872056860
H           -7.44974095053326        3.03572880718673       -2.16854695920911
H           -8.08957891802279        4.19331930626892       -1.00255133632006
H           -6.37750759685409        4.22955785466790       -1.43286191918187
N           -6.94315891845936       -0.91728196615356       -0.84517445497198
H           -9.10061366011893       -0.50741157144913        0.51954383391235
C           -8.01075394556302       -1.82175916839284       -1.18293583767863
H           -7.77241515142452       -2.18748174583303       -2.18843560360030
C           -8.15743702214285       -3.01922435974473       -0.23424276615190
C           -9.36531529110107       -1.10397965310491       -1.28861245299818
H           -8.46685048450359       -2.70679261902729        0.76069540048482
H           -8.89698018319127       -3.70862406576042       -0.63402764157866
H           -7.20127070208511       -3.53138405764765       -0.15333642161808
O           -9.75456170450724       -0.43818197815817       -0.20109643410294
O          -10.04449748220304       -1.15276963928192       -2.27373832542885
