42
 energy: -62.486133508647 gnorm: 0.000480189519 xtb: 6.7.1 (edcfbbe)
N           -1.11798621316347       -1.40276587645837        0.21871602023370
H           -0.16879092044842       -1.48984082024714       -0.12302467498604
H           -1.47841080583006       -2.34325741693164        0.35625782066954
H           -2.12215318341881       -0.45419099964595        1.54446224385104
C           -1.95665513073625       -0.68951441457308       -0.74462620139389
H           -1.39675513967910        0.19448397741710       -1.07489419652295
C           -2.37117050950425       -1.50837407576074       -1.96445290010151
C           -3.17156586283422       -0.17662163405913        0.00891378479231
H           -2.90318801858506       -2.40386188140772       -1.65098459875532
H           -3.03637775957511       -0.91715580825175       -2.58350504664120
H           -1.49717443888703       -1.79933841230447       -2.54335177445646
O           -3.02464064115787       -0.12462017577018        1.35662660055257
N           -4.21333425759932        0.14802220453936       -0.61128003198988
H           -5.14816368475784       -0.94878594471767        1.79718054279893
C           -5.34764205917166        0.71322045179566        0.09722503061800
H           -5.04689516198736        1.12788766098335        1.07086905079451
C           -5.95885127415450        1.80083032077041       -0.78784299546249
C           -6.27874362867422       -0.45391799658528        0.32675403567150
H           -5.19314117285428        2.55904530724001       -0.96344458000742
H           -6.19837899359919        1.33969498110275       -1.74544943930132
C           -7.21057352964758        2.46133279099416       -0.20242570312448
O           -5.96512863968665       -1.25001211891256        1.37411911844293
H           -7.92091816829252        1.67544763666307        0.07029611631656
C           -6.88772890117617        3.28519106703765        1.04272588828114
C           -7.85713139368559        3.35219542782456       -1.26156454105696
H           -6.13766915201928        4.04017289656300        0.81521597705929
H           -7.78192465977086        3.79003597329116        1.40138569245225
H           -6.51361543102915        2.65824945511460        1.84818044752388
H           -8.12303075516790        2.77268011433624       -2.14193954842125
H           -8.76035756001110        3.81460161301684       -0.87057865653552
H           -7.17159435349818        4.14148906739829       -1.56276785433969
N           -7.21841136038931       -0.69846445763511       -0.47061727079405
H           -7.99884983341709       -0.40669664665715       -2.06383321655006
C           -8.07239838573566       -1.85364826018954       -0.33020146442897
H           -7.50117575832014       -2.76051652871105       -0.09417420509894
C           -9.13557054973577       -1.64335019890143        0.75352802518555
C           -8.78553337772743       -2.04875801947579       -1.67812690829293
H           -9.69218812380360       -0.72924818026382        0.55593408695990
H           -9.82232619840351       -2.48500995904484        0.75023650643329
H           -8.66074796542252       -1.56683213770529        1.72857500429300
O           -8.61033384516241       -1.03639186329126       -2.51695330526843
O           -9.44896445565334       -3.01543293702594       -1.93222775493857
