42
 energy: -62.486133517197 gnorm: 0.000479052612 xtb: 6.7.1 (edcfbbe)
N           -2.18794371064122       -2.48528270379324       -0.67158303981805
H           -1.22912765216223       -2.80841352084479       -0.71625397381555
H           -2.60105967736180       -2.62192788773425       -1.59072494374078
H           -3.79577700748682       -2.61764792326871        0.34688197482415
C           -2.24419147409279       -1.06705413752689       -0.31910904268306
H           -1.61493418242173       -0.92675884844847        0.56965446036356
C           -1.77898310261525       -0.12030734458047       -1.42340220220992
C           -3.68362596478145       -0.76573040618703        0.09221247521411
H           -2.38279008905799       -0.26823223184853       -2.31687544989291
H           -1.90438640064596        0.90513642514302       -1.09351130264827
H           -0.73284649335192       -0.29892413272985       -1.66567257479835
O           -4.36941625264240       -1.84163291251921        0.51499351450260
N           -4.06662679291188        0.42785257332861        0.07678972853121
H           -6.73868525012600        0.56289882761773        2.33731944521191
C           -5.39437008444728        0.92395311451999        0.31808251938543
H           -5.31898894952859        1.56109688811226        1.21213119492024
C           -5.75859378768370        1.80210793342973       -0.89412379419792
C           -6.48538921141088       -0.10280449954926        0.51993184709496
H           -4.92427686428610        2.48001022765092       -1.07751598321549
H           -5.85151492764394        1.12973452914789       -1.74742083670822
C           -7.05719846101100        2.59749893572200       -0.72924001157356
O           -7.15187037878944       -0.06468182403602        1.73268273092129
H           -7.85103446194213        1.91778280228374       -0.39967907895596
C           -6.91127431312776        3.72239362577931        0.29392588974450
C           -7.46712426974026        3.17857851107974       -2.08104970054663
H           -6.11688825098119        4.40257917954222       -0.00572781972219
H           -7.83768559428086        4.28744971033459        0.36522448873191
H           -6.67710980590456        3.34039857721245        1.28491220169093
H           -7.63056453975579        2.38288461017827       -2.80321088843256
H           -8.38791044873917        3.74922824850554       -1.98735069329244
H           -6.68979048495777        3.83776681840984       -2.46164365569812
N           -6.74184242633649       -0.90646605226360       -0.40203205934280
H           -8.80868287078278       -0.34406708278378        1.02881838774419
C           -7.73059456022466       -1.95173654349772       -0.39911276194698
H           -7.53062814005603       -2.54122212422880       -1.30152340614293
C           -7.68481382078862       -2.87545417121025        0.82541707561049
C           -9.15136108093162       -1.38909657016904       -0.54664888157547
H           -7.99699769664165       -2.35805056948905        1.72992132258890
H           -8.34018283990835       -3.72722605898631        0.66129935426216
H           -6.66507939883200       -3.22604816592048        0.96487979323638
O           -9.51885068023841       -0.50100927436473        0.37829338033711
O           -9.89517885259833       -1.73160213249324       -1.42102463792629
