42
 energy: -62.486133502408 gnorm: 0.000481239908 xtb: 6.7.1 (edcfbbe)
N           -2.40422179682759       -1.62512284036397       -0.43860854318836
H           -2.21043605325758       -1.05543349634662       -1.25478846028146
H           -2.29193569308126       -2.59820821561132       -0.70043594133847
H           -1.98367365981839       -0.52400376649402        1.15746745282571
C           -3.75864757032481       -1.37924637628468        0.06528766596424
H           -4.52412886400139       -1.41688859530053       -0.72073036130076
C           -4.05861024258462       -2.41290018378552        1.15022255370748
C           -3.71747547145137        0.01562663046109        0.69829958451176
H           -3.31138774775007       -2.35021855774632        1.93841399204044
H           -5.03765133902926       -2.23604646175567        1.57973041044874
H           -4.03331160953486       -3.41810749000206        0.73279582000165
O           -2.58134131957734        0.21537659602489        1.38275438074246
N           -4.50013314845662        0.99449834224840        0.63630254565448
H           -7.09406634786352        0.94570585151533       -2.05926848031214
C           -5.77314593068416        1.21937777843318        0.03050012341201
H           -6.36031110394184        1.70432867631179        0.82816932111680
C           -5.54732718694832        2.26883008012889       -1.08026860712041
C           -6.63620939421130        0.04605783382714       -0.41709704853056
H           -4.66578854271161        2.84076670451237       -0.78574038272690
H           -5.28911789284636        1.76435422535777       -2.01780723545825
C           -6.71899325581631        3.24620175026028       -1.27904456412469
O           -7.26467451540124        0.10858245181056       -1.60917896981192
H           -7.67568249667629        2.71684780906424       -1.17930076704595
C           -6.68355790468098        4.34092795349175       -0.21482201310275
C           -6.65432580961948        3.87160355997118       -2.67249800567235
H           -5.78609776142629        4.94472954408855       -0.32657412865921
H           -7.55022935356884        4.99104976243721       -0.30899012603499
H           -6.68306949070898        3.91342338372663        0.78445639422949
H           -6.74021825731952        3.11840979864556       -3.45453225623255
H           -7.46193847689712        4.58751183561425       -2.80383416668829
H           -5.70994680584149        4.39485102586821       -2.80509342128697
N           -6.77577399852160       -0.94753474218996        0.34817798951612
H           -7.00887368918487       -1.40962342655593        2.10688538594655
C           -7.67129508863243       -2.03336052079648        0.00712502144706
H           -8.61422766116975       -1.64279141403636       -0.40301453903002
C           -7.08301727616557       -3.01473786457837       -1.00894402819496
C           -8.01251959378343       -2.77547890858956        1.30808296664828
H           -6.12827750768370       -3.39462221488993       -0.65504134370259
H           -7.77011934095795       -3.84779423871110       -1.12631224081919
H           -6.94423925627833       -2.52304257137258       -1.96872511197102
O           -7.52042125291350       -2.19826008524722        2.40023796506406
O           -8.66977143614699       -3.77766608189849        1.33467611425221
