42
 energy: -62.486133515326 gnorm: 0.000479406879 xtb: 6.7.1 (edcfbbe)
N           -1.39696267229882       -1.44431053494300        0.51774262657213
H           -0.80657409973449       -0.65386633066499        0.75486252849473
H           -0.79473123875349       -2.21046611491716        0.24100811458304
H           -2.92552375418435       -1.20088069268241        1.64777629250645
C           -2.32222789474169       -1.09543823257144       -0.56021275021764
H           -1.88378597695637       -0.45062694257761       -1.33337768541013
C           -2.86588023419942       -2.36501131996133       -1.21711967754247
C           -3.49153347861710       -0.36182486807656        0.06856180860531
H           -3.30814680837463       -3.01671826143896       -0.46633673137338
H           -3.62672187325574       -2.09608224006431       -1.94366741506101
H           -2.06663494508966       -2.90292560429449       -1.72246997191991
O           -3.68170506966756       -0.63641272721982        1.38115645602214
N           -4.19236484764770        0.40776163901712       -0.63125279844489
H           -5.69129933581427       -0.32692971948478        1.90333775287720
C           -5.38422980343910        1.04691683335586       -0.09897351647588
H           -5.15790652924933        1.52999598529947        0.86430887479663
C           -5.82600635234201        2.08672660273090       -1.13146178327338
C           -6.41275467088453       -0.03614285002637        0.13831110431046
H           -5.04960826137737        2.85294636339626       -1.17020984297461
H           -5.85165792877835        1.58164569431716       -2.09599145922803
C           -7.18425093443067        2.74517377382493       -0.87396092058568
O           -6.45743921663924       -0.58611543219337        1.37131174050805
H           -7.96342094117761        1.99536687462022       -1.04643920975241
C           -7.31748718830285        3.27804554892392        0.55095260810079
C           -7.39029372309742        3.87727531880842       -1.87924279860730
H           -6.49129650336955        3.94631817058898        0.78559809708394
H           -8.24595243330757        3.83477325865007        0.65762532497747
H           -7.33019852604880        2.46970039157855        1.27816656397183
H           -7.28679974211892        3.50696662229414       -2.89597033343763
H           -8.38200795625728        4.31011464606395       -1.76984167729322
H           -6.65459677341713        4.66313752998417       -1.72275822947737
N           -7.14122274342765       -0.42460432988148       -0.81497390831013
H           -8.94025888284284        0.53355077340770        0.09698443143783
C           -8.04978241949615       -1.54104411451346       -0.64557254092946
H           -8.66060478633912       -1.56444301681116       -1.56119979647184
C           -7.32017910163491       -2.87544098574245       -0.49996054936983
C           -9.02850676375698       -1.33530449424755        0.51718941747980
H           -6.71095793571531       -2.86657522148390        0.39972777791158
H           -8.04909908034334       -3.67611135693543       -0.41611236419727
H           -6.68422318873520       -3.04503994878949       -1.36525848129561
O           -9.41158086366832       -0.06280087649230        0.70063589123042
O           -9.46977578269120       -2.22332564105927        1.18604217287059
