42
 energy: -62.486133518330 gnorm: 0.000479334606 xtb: 6.7.1 (edcfbbe)
N           -2.39599369261175       -0.69168140125560       -2.04678641693078
H           -2.43959716700452        0.19973412218664       -2.53042427000557
H           -2.46138478357625       -1.42498290978041       -2.74378409082431
H           -1.37687354567915       -0.32724611537078       -0.47661985266222
C           -3.49000871990576       -0.80909170180307       -1.08025521374705
H           -4.45448251893993       -0.47076929101468       -1.47669437493253
C           -3.59697510502517       -2.27025153059608       -0.63734021018723
C           -3.09924032028766        0.04314919744554        0.13223385612518
H           -2.61889809109012       -2.63445318248945       -0.32926925944141
H           -4.28208336289775       -2.37106947004206        0.19921679724762
H           -3.96160639542789       -2.88620399360860       -1.45725558440426
O           -1.77682625022618        0.09361040182927        0.31486922089419
N           -3.80954892217590        0.66421853189100        0.96605617733677
H           -5.77239215535807       -0.92914772129339        2.58230488736798
C           -5.23510581342980        0.83963359416910        1.03679756338763
H           -5.42057417461191        1.13503274668720        2.08023781078329
C           -5.64286982568990        2.00416004548495        0.11620518568453
C           -6.05377015342192       -0.40152688788917        0.75444887815680
H           -4.98342681046111        2.84450031013139        0.33905081978744
H           -5.45839605051354        1.69594254832973       -0.91390301518938
C           -7.10425604395692        2.44136116560457        0.26006804515716
O           -6.23381484963744       -1.24690963922736        1.79522942937550
H           -7.74285048307576        1.55512503119539        0.18506767866696
C           -7.36408154089031        3.12215061573349        1.60190975306301
C           -7.46229281066048        3.39261355597223       -0.88093720560912
H           -6.70862264064406        3.98161520136673        1.72347829986238
H           -8.39428163554029        3.46689251616903        1.65406511153077
H           -7.19732572224483        2.44197197190199        2.43309172311040
H           -7.32492191564493        2.91012044769298       -1.84585017897186
H           -8.49979614989158        3.70836280487335       -0.80212496189819
H           -6.83138282178123        4.27800507393617       -0.84645254036429
N           -6.46477237868240       -0.66197077459173       -0.40725229273878
H           -6.67476826173402       -0.26649637959662       -2.21720156117827
C           -7.17133100922349       -1.88285626325356       -0.72088626031646
H           -6.78082770313912       -2.74930561036001       -0.17453194006636
C           -8.67060879513382       -1.74257135948052       -0.42994865824837
C           -7.00218560143593       -2.10457551926988       -2.22790928998843
H           -9.07868826512505       -0.88474337990086       -0.96168172498827
H           -9.18857199741023       -2.64113920263817       -0.75331087498942
H           -8.82487215221898       -1.60384462871070        0.63745551123887
O           -6.76259109458416       -0.97526287658043       -2.89237683336598
O           -7.09329245865530       -3.17401160374970       -2.76001258291263
