42
 energy: -62.486132279766 gnorm: 0.000624512944 xtb: 6.7.1 (edcfbbe)
N           -1.59086954534578       -0.59147725104652       -2.08835782303029
H           -0.82277749541396       -1.17590300873860       -2.39453212621541
H           -1.21340964273464        0.33066366491460       -1.88806851865168
H           -3.39707740373974       -0.12005348204595       -2.59875670595536
C           -2.22263915493067       -1.13942823759592       -0.89007742846979
H           -2.40734625653668       -2.20517456589544       -1.08126701001384
C           -1.40238299314385       -0.99145361100754        0.38959353049046
C           -3.59008922907565       -0.47757969974094       -0.76523580556499
H           -1.18834919448908        0.05869977727639        0.57675679592865
H           -1.96643120303025       -1.37809055592685        1.23140943052505
H           -0.46378061462065       -1.53533879180606        0.30397563373939
O           -4.08579125320441       -0.00184636006267       -1.91307369296092
N           -4.15429012581272       -0.45069478162014        0.36072568266184
H           -5.35797178799342       -2.22618031509698        0.90074900211361
C           -5.48544658205446        0.10618226613204        0.55817505145146
H           -5.59592071768562        0.16880119784434        1.65110527165915
C           -5.71580911499841        1.49093831283552       -0.05329959516472
C           -6.47465732136919       -0.92892447672943        0.06903472828967
H           -4.81129937257714        2.08424600559696        0.10040051638488
H           -5.86486667086301        1.37295740991835       -1.12590943919381
C           -6.91459216719783        2.22605177117669        0.55850382521781
O           -6.21379076745178       -2.19889772022117        0.44793072075980
H           -7.73356008812789        1.51068172653275        0.67666805423441
C           -6.56996274216392        2.81153676995460        1.92677213641693
C           -7.37306404038329        3.34183163549960       -0.37895926191098
H           -5.78055300283176        3.55473316554409        1.83192381065612
H           -7.44192244471165        3.29424052493470        2.36204175225296
H           -6.23250512545474        2.04121761504423        2.61588068275723
H           -7.67823013513197        2.94161258462182       -1.34257812134483
H           -8.21735680634307        3.87572073931060        0.05083737857410
H           -6.56625592591366        4.05366643806392       -0.54177330748252
N           -7.45165850061021       -0.60244880803850       -0.65027953666037
H           -8.23584984653283        0.61595538082864       -1.72043614336090
C           -8.40152513140738       -1.56769868427433       -1.15159027782967
H           -7.90664329579181       -2.47193763543535       -1.52822649235304
C           -9.41803249675869       -1.97168420953014       -0.07833006537502
C           -9.15484191078460       -0.89363386379482       -2.30923282748114
H           -9.89125786304170       -1.08469082452885        0.33841878340676
H          -10.17954210267546       -2.60388640891566       -0.52605745377979
H           -8.91797998494062       -2.51565838177222        0.71913988983832
O           -8.90626980775767        0.40546869230546       -2.41443821785833
O           -9.90959139301900       -1.48454979982966       -3.03062772639313
