42
 energy: -62.486132546590 gnorm: 0.000649685386 xtb: 6.7.1 (edcfbbe)
N           -0.71951981919875       -0.10518668116158       -0.04301807639904
H            0.15049909507550       -0.34191921986684       -0.50394061010959
H           -0.69684460686313       -0.51791670299665        0.88485425794486
H           -1.85358282597957        1.44925590177336        0.22408894745795
C           -1.86595502595916       -0.62075466333738       -0.78847920272761
H           -1.72740089756905       -0.32267089464951       -1.83638833283994
C           -2.04490387405742       -2.13617360787141       -0.71892721446337
C           -3.09059674546945        0.13287004197311       -0.28520072083698
H           -2.27807766806234       -2.44326284792506        0.29800154130090
H           -2.85503325606262       -2.44693508547137       -1.37009239432229
H           -1.13121548075361       -2.63434177743815       -1.03780911288056
O           -2.82735439101086        1.35224953966021        0.20552105498668
N           -4.22099828266287       -0.41388463318137       -0.34623709800991
H           -5.10449183606875       -1.92770931081200       -0.66504973626012
C           -5.47228429802355        0.21941832835246        0.02168367011021
H           -5.48798289031255        0.42886896611554        1.09791440843978
C           -5.65123299548597        1.53906612907893       -0.75570562179272
C           -6.54553374777645       -0.81636809557834       -0.29241599103230
H           -4.83258171962978        2.19508163043419       -0.45485309416542
H           -5.52640946393463        1.31245071490281       -1.81810343213096
C           -6.96885535009049        2.29304644270491       -0.56434815375169
O           -6.08300068655846       -2.02348052517424       -0.63592575223352
H           -7.77274316619007        1.70781087364901       -1.01446637456952
C           -7.28693308722941        2.52828268831621        0.90910830772740
C           -6.88409331324866        3.62952806511719       -1.30154930041493
H           -6.47173598132526        3.06344615345203        1.39257239091895
H           -8.19156804883455        3.12387636563587        1.00555638367364
H           -7.44226024331573        1.58561526736654        1.42673506973641
H           -6.65180496022952        3.47639679952363       -2.35298544070358
H           -7.83283465542921        4.15610382446323       -1.23508700057836
H           -6.11031972989444        4.25927626624986       -0.86666916087680
N           -7.77131828036977       -0.51762514325370       -0.25659104938495
H           -9.18149464584779        0.62834660100052        0.10754243619453
C           -8.78104293608347       -1.50636729680335       -0.57345679413659
H           -8.56534732981519       -2.01195874350483       -1.52297253596956
C           -8.92174325250901       -2.56672206655603        0.52624846433423
C          -10.12356413910011       -0.77461958340569       -0.68825003247580
H           -9.10744574220649       -2.08620692018738        1.48514632221418
H           -9.75561834288917       -3.22125890818263        0.28902638240080
H           -8.00930268889809       -3.15314933762799        0.59270638445752
O          -10.10784266851145        0.44878527200584       -0.17104754732534
O          -11.10382128191134       -1.27328970825225       -1.16820123497290
