42
 energy: -62.486133504991 gnorm: 0.000480649656 xtb: 6.7.1 (edcfbbe)
N           -0.87744464107709       -0.38890405621913       -0.47850399063996
H           -0.12347636620396       -0.78473374180376       -1.02731908708188
H           -0.73579930892228       -0.67778719250096        0.48606529533952
H           -1.83820102409856        1.29271534130770       -0.23603422695353
C           -2.17397691557740       -0.87510765664528       -0.95204318670914
H           -2.19482948727580       -0.72966362343081       -2.04033517575560
C           -2.46982717083540       -2.33893541197076       -0.63777306876908
C           -3.24047336148965        0.04725075318461       -0.38129072058042
H           -2.41031414148567       -2.51140484764054        0.43508269312053
H           -3.47646683834380       -2.57335885813227       -0.96628249707284
H           -1.75876691417306       -2.98974787111961       -1.14266230625201
O           -2.80469677480702        1.29042191123273       -0.08980984039971
N           -4.40648230570452       -0.38644131717130       -0.22222781488149
H           -6.94605435687305       -0.15289349555016        2.12370195290689
C           -5.50019991218467        0.43514497055905        0.23868171827576
H           -5.30002199545368        0.77188429738786        1.26772118892329
C           -5.73989997580423        1.65930286947461       -0.66486022653249
C           -6.73905638146655       -0.43092850061376        0.20283977829277
H           -4.83837483304680        2.27213717600526       -0.66764684167787
H           -5.90452461049525        1.27043038279308       -1.67080308123088
C           -6.93899196833642        2.51771452106207       -0.24898877080072
O           -7.42337928166584       -0.57566662638927        1.39998130649330
H           -7.81666384249559        1.87278024396390       -0.12836116424760
C           -6.68262340090635        3.25842549798224        1.06238585834766
C           -7.24529673670069        3.52289647828821       -1.35758148297778
H           -5.80107360039440        3.88963070587777        0.97120430293393
H           -7.53311431636266        3.88980661649702        1.30950943810629
H           -6.52558952534035        2.57238271429940        1.89194313956648
H           -7.48452811525987        3.00639516780794       -2.28355355454748
H           -8.09438510322015        4.14468833346065       -1.08378247886719
H           -6.38702858013541        4.16832758415693       -1.53233072826711
N           -7.08890543292800       -0.95145170773760       -0.87561123990857
H           -9.08610293442472       -0.45608872132830        0.68487145264212
C           -8.21698205471676       -1.81408424743229       -1.10722853964425
H           -8.08972987357698       -2.18901920550957       -2.12935746937189
C           -8.31928859150986       -3.00575552530594       -0.14517390807918
C           -9.54749451997738       -1.04617312603111       -1.08554881133152
H           -8.51473058848381       -2.68133517593429        0.87450663477089
H           -9.12342956935583       -3.66281434290041       -0.46725661565654
H           -7.38228989681066       -3.55767765402939       -0.15873463326347
O           -9.80333703421825       -0.36160687428272        0.02999775885999
O          -10.32233897912421       -1.07278153434980       -1.99845593842815
