42
 energy: -62.486133518541 gnorm: 0.000479329120 xtb: 6.7.1 (edcfbbe)
N           -1.82346959445087       -1.22446538621780       -1.80176780554896
H           -1.18366953168337       -1.99301638635899       -1.96105831382305
H           -1.27352220277410       -0.37054833644880       -1.76200055661594
H           -3.46437646393051       -0.49304060196937       -2.46050679068540
C           -2.55492455060687       -1.40179289037366       -0.54883582987327
H           -2.91325950994471       -2.43885388475745       -0.52356444919738
C           -1.73344156549395       -1.12244762000838        0.70793360079846
C           -3.79756048297460       -0.51481853883507       -0.61641655777082
H           -1.34801925581299       -0.10505524784455        0.68333146241208
H           -2.36585474198828       -1.22683948537134        1.58252007815023
H           -0.89797873163273       -1.81634327117304        0.77967035147511
O           -4.13976052695624       -0.13255682577533       -1.84949389236441
N           -4.39674021144972       -0.25402830735130        0.45912464264577
H           -6.67843736852128       -0.95997506052584        2.10822872015418
C           -5.61227157904807        0.53455971746136        0.54891451258252
H           -5.67094488445576        0.83180626017680        1.60646443026133
C           -5.67171216738705        1.78059089439978       -0.33832628313599
C           -6.75223852593004       -0.41125710331488        0.24506437539178
H           -4.73202760175162        2.32701192871937       -0.23318079437117
H           -5.76918181167335        1.44446917150231       -1.36890256613825
C           -6.84849010858760        2.70006770702339        0.00620927324142
O           -7.22348558706406       -1.12865974489176        1.32985521944537
H           -7.74697455073753        2.08419087725454        0.12328404095263
C           -6.60851754695373        3.47791137230272        1.29902226528456
C           -7.08629421740993        3.67358057655450       -1.14626229778317
H           -5.72476242131319        4.10565720006444        1.20277815202293
H           -7.46028626580758        4.11855082233561        1.51618079612111
H           -6.46468048260163        2.81361171615283        2.14788680050216
H           -7.31944483865935        3.13051267683085       -2.05824121514281
H           -7.91687530983223        4.33835475117068       -0.92045659024476
H           -6.19872988426058        4.27862639852947       -1.32010544836662
N           -7.14370685668268       -0.56389917369768       -0.93045257618899
H           -8.96603718455155       -1.09114196378931        0.82212778919779
C           -8.13582756217701       -1.48781549679525       -1.41221874672821
H           -8.09032074859925       -1.41555054795496       -2.50512260757030
C           -7.89937188237780       -2.94612975502876       -0.99490320719648
C           -9.56250573662857       -1.08719599651615       -1.00670736388010
H           -7.99822064756636       -3.07447269276990        0.08085310300286
H           -8.62069975451602       -3.58712947580023       -1.49569231134982
H           -6.89536512292299       -3.24517780309905       -1.28820041669304
O           -9.77383237131281       -0.92953086687630        0.29976661319316
O          -10.44237087302110       -0.94978536954341       -1.80786432874608
