42
 energy: -62.486133503405 gnorm: 0.000481163710 xtb: 6.7.1 (edcfbbe)
N           -1.62017080745254       -0.32231473682329        0.71527369805130
H           -0.92429353730742       -0.91547137820139        1.15487480158357
H           -2.28898516723543       -0.03520145163754        1.42230364289285
H           -3.09482612553325       -0.44983528216006       -2.56246135235301
C           -2.32233879781784       -1.05345829459088       -0.32192480042569
H           -1.65185876106019       -1.11083092571364       -1.19386923620265
C           -2.73977896160542       -2.47974594948940        0.08042005163859
C           -3.57376008267119       -0.28838212907726       -0.69049589439989
H           -3.40274318950864       -2.43077953257965        0.94088665661283
H           -3.26282171684899       -2.97671664927204       -0.73384728213473
H           -1.86001800110694       -3.06637827523872        0.33723179002344
O           -3.82563945103220       -0.11884399914769       -2.02558587650628
N           -4.32083864271305        0.09895367449923        0.23654494523436
H           -5.84376256854281        0.04174554681410       -2.22628273887320
C           -5.56737548898652        0.81809818761634        0.07539198307050
H           -5.87409053539555        1.05800781488022        1.09856529586907
C           -5.44052335784549        2.11342583484876       -0.73796447341744
C           -6.60829472238033       -0.12970257559494       -0.48260198747652
H           -4.72893819696546        2.75919350065372       -0.21835895997180
H           -5.01769966589004        1.89880091435360       -1.72259205526929
C           -6.77057989185998        2.85521812875622       -0.91767009386633
O           -6.60578977537414       -0.38122428403491       -1.80273126360466
H           -7.48309703807993        2.19166867851359       -1.42117629672864
C           -7.37237297601456        3.27869801924097        0.41991088026805
C           -6.54469908902356        4.07980801278678       -1.80358627290406
H           -6.65150516342093        3.85568218509128        0.99522923224965
H           -8.25095329873340        3.89738926011261        0.25316356471848
H           -7.67659602917201        2.41461645833017        1.00428144995322
H           -6.13367428057429        3.79216440063113       -2.76913393848704
H           -7.48198450311076        4.60317595394864       -1.97508191425937
H           -5.85018963048788        4.76777571253457       -1.32610619934436
N           -7.39217092479053       -0.69407147368575        0.32697498924964
H           -8.14956588892107       -0.80383469606703        1.97409544239090
C           -8.37582695900928       -1.65898058609041       -0.11308220550995
H           -8.91780623773396       -1.31088738285688       -1.00140613897468
C           -7.73964081571818       -3.01855096202866       -0.42372112173101
C           -9.37832753444205       -1.84490088567162        1.03571915052251
H           -7.15126190813897       -3.35479103094470        0.42784752801387
H           -8.52362742796501       -3.74308321867253       -0.62482604779392
H           -7.09213207195093       -2.93539504146514       -1.29295920080532
O           -9.00080188012188       -1.26190259547131        2.16690804782471
O          -10.39483016359608       -2.47116447440046        0.92077743979477
