42
 energy: -62.486133508262 gnorm: 0.000480522420 xtb: 6.7.1 (edcfbbe)
N           -2.03309553289067       -1.23250101185389        1.79658679701107
H           -1.09440030990722       -1.61118077861249        1.75455153456032
H           -2.62935067349143       -1.94640562049755        2.20765052629831
H           -2.98838644896679        0.35147440205579        2.32664484797369
C           -2.52224136211227       -0.90351528067621        0.45750508357712
H           -1.74507970839422       -0.29922898447002       -0.03050901843929
C           -2.84713050929957       -2.10948520074006       -0.42012612871889
C           -3.72415400388597        0.01096461461201        0.63687667568001
H           -3.51471133779504       -2.78929049067833        0.10384610400026
H           -3.33923545866705       -1.76975048138447       -1.32467215265365
H           -1.93601634428845       -2.64379280694101       -0.68161677907322
O           -3.74172144783320        0.68897313404406        1.80103864306909
N           -4.58662551965624        0.10537078705639       -0.27190805525550
H           -7.91390362198336        1.80070210555334        0.57058635590750
C           -5.70446872635898        1.01092247311294       -0.13962570120190
H           -5.56232607915372        1.72441432964544        0.68713223454042
C           -5.80480160783108        1.75172661415006       -1.48943080978933
C           -6.94117724338563        0.19323073412421        0.14796688559637
H           -4.82970200128161        2.21025974162945       -1.66884784389890
H           -5.95033257187939        0.98717709379662       -2.25435698138141
C           -6.88839445851889        2.82599547282518       -1.62698184289702
O           -8.06833783513711        0.85028483775958        0.50678038051849
H           -7.87453208229978        2.37728146437306       -1.46424459987530
C           -6.68250701556095        3.98013970429871       -0.64542563655736
C           -6.86798515500072        3.36737504527383       -3.05701523710264
H           -5.71867218095635        4.45222813199947       -0.82409750002962
H           -7.45865741032956        4.73100630458219       -0.77807339780753
H           -6.70564286949213        3.65400521138180        0.39301821310447
H           -7.04139534313873        2.56768931324031       -3.77282840958150
H           -7.64161856297534        4.12016990392846       -3.18980290127164
H           -5.90491813772990        3.82241816771449       -3.27746969816904
N           -6.86084290485825       -1.05962118314850        0.11993009240035
H           -5.78596747966278       -2.45429195413754        0.07990173529259
C           -7.94350916021441       -1.94795032164432        0.45317559535180
H           -8.50459899201104       -1.60813389433919        1.33327508494109
C           -8.91554128691302       -2.12878366459102       -0.71709825452224
C           -7.29252401693067       -3.30670393727690        0.76588705074137
H           -8.36877761341437       -2.42342255669390       -1.61046433808226
H           -9.63690929337494       -2.90210184412465       -0.46829299746458
H           -9.43797251545707       -1.19548903242747       -0.91211023572304
O           -6.00823040265684       -3.35543590229321        0.43366008700531
O           -7.88979603731459       -4.22875027371016        1.24791943803186
