42
 energy: -62.486133513399 gnorm: 0.000479659652 xtb: 6.7.1 (edcfbbe)
N           -1.58034493463605       -1.17553011564995       -0.30134104636922
H           -1.02807021891757       -2.02463905412432       -0.30374477420380
H           -1.07709641986301       -0.48362919327908        0.24780315715446
H           -2.55088044952091       -0.10821225575293       -1.55154186288197
C           -2.89988677049801       -1.41285854920318        0.28605466535852
H           -3.29545794501041       -2.33135661852233       -0.16726835720374
C           -2.90853101580203       -1.56495631152051        1.80412240556746
C           -3.81568689576148       -0.28231368843022       -0.18030237873543
H           -2.50671296448254       -0.66955875238127        2.27456451782846
H           -3.92895381656081       -1.70303972562912        2.14400619978392
H           -2.31021942802867       -2.42326662897275        2.10233500986038
O           -3.41730653990161        0.29327160536082       -1.33059453177937
N           -4.83104825835537       -0.02910124328083        0.50697922100172
H           -8.24242907435634        1.64124740546354        0.44205193054521
C           -5.89303563697387        0.90695144235484        0.25134683561776
H           -5.96750874224444        1.52057127621208        1.16114641283366
C           -5.70582278688175        1.81658047864444       -0.98218365695031
C           -7.15720979560597        0.07508587654958        0.15707707598642
H           -4.72685232612793        2.28932260643738       -0.88477358355999
H           -5.67162885317248        1.17438572007866       -1.86383372602764
C           -6.74846091470076        2.91721904611857       -1.21226489028314
O           -8.35190095762712        0.69902872228336        0.26574890392575
H           -7.73455469948024        2.46732595794824       -1.37266356203712
C           -6.81764435053884        3.90691643063348       -0.04859466883384
C           -6.38654161049355        3.67052829784380       -2.49340463162919
H           -5.84540787829672        4.37183999758788        0.10156600532325
H           -7.53914001107046        4.69185257809257       -0.26587774309366
H           -7.11018124112845        3.43574927999380        0.88879837300402
H           -6.34804592217605        2.98999161102223       -3.34032030002288
H           -7.12543420725165        4.44020260305879       -2.70492876585780
H           -5.41363895357867        4.14631584558179       -2.39253108223803
N           -7.04612006366864       -1.17169828673349        0.05410575371299
H           -5.97200960325479       -2.54517902962036        0.35086290893332
C           -8.15978878898968       -2.08268981289751        0.01315417766440
H           -8.92336384588267       -1.83379345673398        0.76212046754747
C           -8.81828017486586       -2.12335784784492       -1.36907471721387
C           -7.58743137185497       -3.47504663265785        0.33633632123401
H           -8.06496738398761       -2.30956192118271       -2.13180719499102
H           -9.55323617123953       -2.92297843908032       -1.39154274775512
H           -9.30699921254506       -1.17462995360735       -1.57643743203227
O           -6.26686514164276       -3.48394553409388        0.46914063301037
O           -8.27149587671244       -4.45506941980986        0.44464561408456
