42
 energy: -62.486133508579 gnorm: 0.000480571826 xtb: 6.7.1 (edcfbbe)
N           -1.04526330325285       -0.99822601781825        0.79645261997596
H           -0.06025561778024       -1.07838058663843        0.57612669237905
H           -1.35801799660435       -1.90415403367847        1.13479725536151
H           -2.24474792392850        0.18076887466480        1.74695753662508
C           -1.81942120600345       -0.61054554251932       -0.38077502154659
H           -1.29405039672924        0.22903081335490       -0.85441245398935
C           -2.01801360655868       -1.72120450781797       -1.41137595287972
C           -3.14765252611700       -0.06288058444714        0.12311254454337
H           -2.55354087318310       -2.55809003148556       -0.96673889257125
H           -2.59333240122638       -1.34277453099837       -2.24973284998977
H           -1.05497678459542       -2.07432426417571       -1.77460926913724
O           -3.13002236622617        0.38722876202790        1.38439787392266
N           -4.14040938727780       -0.02457748333303       -0.65112466831844
H           -5.03463205318478       -1.53070402143382       -1.30708004608519
C           -5.42722205433761        0.47561327766029       -0.20870560882502
H           -5.42751494792125        0.73515385827630        0.85594081111007
C           -5.72934907738989        1.72891898767190       -1.05224381120037
C           -6.43303217675868       -0.63529466155605       -0.44276425322905
H           -4.93076595648972        2.44660513309490       -0.84756044037645
H           -5.65505637352565        1.44374624263494       -2.10431651397596
C           -7.08195512725123        2.39989342696333       -0.80660100527010
O           -5.96516019518458       -1.72395295152090       -1.07247708160611
H           -7.87257877381968        1.69507027525030       -1.07519976536228
C           -7.26085297076147        2.80924554149801        0.65269138601128
C           -7.20363690478470        3.62494682489240       -1.71219575160303
H           -6.46220407309579        3.48213754354241        0.95903133646442
H           -8.21032848757499        3.32270142305130        0.78250826120522
H           -7.25217611653552        1.94035695858060        1.30467287538964
H           -7.08874121268584        3.34668373269107       -2.75721010305459
H           -8.17842262729960        4.08944521870167       -1.58759056183155
H           -6.43941191235115        4.35965133503659       -1.46611827454300
N           -7.63851811465199       -0.47799129727565       -0.10774046242570
H           -9.02041178545231        0.56935055632100        0.49797766206575
C           -8.62644470600104       -1.50484142468961       -0.35741015142486
H           -8.54927493559291       -1.90211999593366       -1.37772072384252
C           -8.50705768661553       -2.66901243079237        0.63305545994659
C          -10.00954979769213       -0.86444086213986       -0.17719746593729
H           -8.53873659579847       -2.29276144899516        1.65384755511778
H           -9.33488938358099       -3.35578659346122        0.48056049739464
H           -7.56784978472893       -3.19327666289298        0.47616061586589
O           -9.97080055342659        0.34223062286747        0.37504209526604
O          -11.02991248568914       -1.41546531188928       -0.48549693601519
