42
 energy: -62.486132336438 gnorm: 0.000613661351 xtb: 6.7.1 (edcfbbe)
N           -1.28559708993371       -1.87652912466105        0.06219852459866
H           -0.95037238723340       -1.67088041900026        0.99717694589655
H           -0.49323494263510       -2.17373778957458       -0.49435432099853
H           -3.09731356950749       -2.48318564455735        0.32252816775439
C           -1.92878416397619       -0.70606328411524       -0.53227814250462
H           -1.43244943810218        0.24425198165681       -0.29374735348877
C           -1.99892394229695       -0.86510881750119       -2.05106264520977
C           -3.35354231662212       -0.65048043321920        0.00103845045842
H           -2.50321959409589       -1.79403096187161       -2.30808040801156
H           -2.55308287971332       -0.03373060257886       -2.47599250480859
H           -0.99819631751252       -0.87884349813089       -2.47796496430079
O           -3.82978331101572       -1.84026542696952        0.42198672883724
N           -3.95398944561582        0.44784618738382       -0.01943342456405
H           -5.18668064576380       -1.06418115482119        2.04223194075689
C           -5.32411400483946        0.73175524959699        0.33699519284069
H           -5.27214667162797        1.27752780346274        1.29234643694498
C           -5.85750758259814        1.68316398413096       -0.74466616446979
C           -6.24696967538360       -0.45146997970646        0.56169434780305
H           -5.06336538736441        2.39989260621394       -0.95828866608598
H           -6.03035141191235        1.09514910883514       -1.64624798809050
C           -7.13731934976950        2.43286862487208       -0.36049133941871
O           -6.07342595832429       -1.18511378809261        1.68112314554506
H           -7.84344633374168        1.71942749997059        0.07377733006517
C           -6.85667845824093        3.53137511201250        0.66278109380728
C           -7.77001505802603        3.04026328667323       -1.61135269338677
H           -6.15361719472400        4.25607024100410        0.25742683792600
H           -7.77644630090449        4.05274216462652        0.91787430908061
H           -6.43847700642483        3.12368668061746        1.57971333288078
H           -8.03277534253237        2.26636659826144       -2.32831277256466
H           -8.67418099718236        3.58646859970333       -1.35312958948426
H           -7.07766202077675        3.73111002196310       -2.08787698186269
N           -7.20866515754232       -0.64490416255347       -0.22787538426402
H           -8.00065319198513       -0.32807962804046       -1.81061810654883
C           -8.15418728717470       -1.71965275316412       -0.04362818655941
H           -7.66067443839258       -2.65694170289578        0.24210476535915
C           -9.20468628234046       -1.37046448931732        1.01719368066600
C           -8.87453597557483       -1.91476421480236       -1.38616372531018
H           -9.68874519477356       -0.42846423266500        0.76587797308795
H           -9.95405103036530       -2.15601480618175        1.05292755400708
H           -8.72938644428402       -1.27780694853174        1.99037775959179
O           -8.64625999866242       -0.93264018119759       -2.25024889403527
O           -9.59067745876064       -2.84863733622808       -1.61862533955282
