42
 energy: -62.486133516730 gnorm: 0.000479233818 xtb: 6.7.1 (edcfbbe)
N           -2.17226303654510       -2.47174260112070       -0.65404838000054
H           -1.20913684387744       -2.78091691994961       -0.71133242122474
H           -2.60884746041049       -2.65858928055556       -1.55317843896197
H           -3.73275553234625       -2.58541255638036        0.43722606814180
C           -2.24377077410978       -1.04064564203796       -0.36286057514411
H           -1.58895193569775       -0.85232452113645        0.49774457236298
C           -1.83097740567674       -0.13568953251723       -1.52038597558345
C           -3.67430118192936       -0.74706817232703        0.08724957820747
H           -2.46048109862005       -0.32876358277374       -2.38628609924199
H           -1.96145324834886        0.90051487005607       -1.22925284545203
H           -0.79074658822909       -0.30964613066883       -1.78963038542930
O           -4.31309558153242       -1.81244001759659        0.59681017981939
N           -4.07719599454989        0.43920641028709        0.03296860405414
H           -6.97124875495847        0.90599014314155        2.16090025176015
C           -5.39876192805671        0.94114035067625        0.28538121710886
H           -5.30656527636875        1.60421108700767        1.15906715543518
C           -5.78155791440803        1.78597124021488       -0.94750937277854
C           -6.49763570628168       -0.06608304970966        0.53331831851668
H           -4.94789157498895        2.45566202608280       -1.16156556054313
H           -5.88390922488697        1.08987412742451       -1.78084919134016
C           -7.07524432612185        2.59181636323356       -0.79330146645429
O           -7.29406297990363        0.15735454846177        1.64565657770937
H           -7.86919196307919        1.93033528016496       -0.42866883000315
C           -6.90891396922036        3.75472169163367        0.18370452914483
C           -7.50317805762146        3.12472876528640       -2.15945257790099
H           -6.13433122478343        4.43244244938286       -0.16882702848174
H           -7.83926027440279        4.31190145035037        0.26734389843800
H           -6.63291495554688        3.41383168190148        1.17920750119672
H           -7.68484192050696        2.30392678524376       -2.84849899385858
H           -8.41779397051224        3.70636106274734       -2.07238202124072
H           -6.72721805064968        3.76240936578487       -2.57752493075002
N           -6.64861768368925       -1.01620227401245       -0.26280628263115
H           -8.86207798619894       -0.30210231597794        0.85911150778522
C           -7.61967157933688       -2.07537763195587       -0.18900722475150
H           -7.32337802411609       -2.79292395303228       -0.96304126205297
C           -7.67225606147589       -2.79274341548259        1.16635429783371
C           -9.02880142786409       -1.58994586987370       -0.55578598085333
H           -8.06443500839302       -2.14515984475264        1.94757150913442
H           -8.30458523079996       -3.67356173987854        1.08678087721349
H           -6.66515393368407       -3.09560154341898        1.44281940889797
O           -9.50389691367736       -0.58419733093847        0.17982143183465
O           -9.67481865783583       -2.08728726716727       -1.43390653258702
