42
 energy: -62.486133518457 gnorm: 0.000479471065 xtb: 6.7.1 (edcfbbe)
N           -2.10782004862653       -1.52929918738431       -0.66266597116575
H           -1.52074546331211       -2.34190175791131       -0.51794788001489
H           -1.51046923361069       -0.70827597819319       -0.61283383757136
H           -3.50330194929404       -0.92986353726870       -1.85290850863748
C           -3.14881616357579       -1.44739347526755        0.36237566017859
H           -3.60164907124930       -2.44359792436584        0.44772356696935
C           -2.66367719039316       -0.99877339062251        1.73776849029560
C           -4.23822714163361       -0.53123098350477       -0.17294397689612
H           -2.18116107408841       -0.02588702973644        1.66691567834485
H           -3.51502465488568       -0.91120104789851        2.40351098663595
H           -1.95565864549396       -1.71734148304293        2.14537332292178
O           -4.27104564992995       -0.42557980967149       -1.51429680209511
N           -5.04277144590638        0.00668965030874        0.62861617881406
H           -7.71510058200884        1.25828837156021       -1.70898044888246
C           -6.13463445972901        0.83628002983724        0.16081317380743
H           -6.56256396577593        1.27024467292074        1.07577035288393
C           -5.70297175514190        1.97504797217522       -0.77912324665770
C           -7.19921621678854       -0.07581162975899       -0.42623375073781
H           -4.67702209302886        2.24323800085687       -0.51760521181274
H           -5.67409526128320        1.61052390354631       -1.80978925700701
C           -6.57770728840594        3.23501218761886       -0.66690819616172
O           -7.97707748563163        0.37128527907319       -1.43148907036835
H           -7.63078842853695        2.95093713806005       -0.54222474687394
C           -6.17535172339191        4.06280957678199        0.55221645758641
C           -6.45048707572946        4.07854889730342       -1.93520880568900
H           -5.15901875261823        4.43342983149914        0.43698816557171
H           -6.83985030820336        4.91579362757834        0.66967460136618
H           -6.22046164953589        3.46674227241453        1.46030825137565
H           -6.78601220758578        3.52917446521790       -2.81327226665184
H           -7.04831377000710        4.98315625951857       -1.85221285236255
H           -5.41352018302668        4.36797376786223       -2.09094417270200
N           -7.32439442826347       -1.21942478593403        0.08185887966996
H           -6.83254963211769       -2.35391283956660        1.36718388809640
C           -8.27678296249256       -2.20125931964500       -0.37345046067497
H           -9.29853937149579       -1.80020937477212       -0.37944887141459
C           -7.94818777968605       -2.73886328950861       -1.77030926950772
C           -8.21259804576479       -3.36755257094616        0.62848033280804
H           -6.91368767649436       -3.07555952283744       -1.80125159714747
H           -8.60273943775126       -3.57685608604588       -1.99269005752899
H           -8.08919179608924       -1.95961663748925       -2.51443073749471
O           -7.25973798787378       -3.22958583068390        1.54070289787426
O           -8.94322126410050       -4.31820441807773        0.57182472386091
