42
 energy: -62.486133515280 gnorm: 0.000479439818 xtb: 6.7.1 (edcfbbe)
N           -1.21660797226781       -1.28959117880486        0.92036635230037
H           -0.21845449464731       -1.38286196697875        0.77733809546601
H           -1.59204166102302       -2.22118649459717        1.07711831727932
H           -2.47271752953884       -0.24265190872358        1.94373732920286
C           -1.86030045585741       -0.67984918454357       -0.24120607859993
H           -1.26168398508807        0.19595447383961       -0.52434755322345
C           -2.00118049125440       -1.60159386491598       -1.45233713500829
C           -3.21061690084191       -0.15013571202473        0.22336341932425
H           -2.59630561403953       -2.47527475555792       -1.19401000300282
H           -2.49207756016745       -1.06931653633778       -2.26024173740673
H           -1.02116573141369       -1.93212309044448       -1.79023417365550
O           -3.31153778636114        0.06200673184748        1.54180697091759
N           -4.10890888738054        0.09105881639727       -0.62598105811610
H           -5.05394430670549       -1.30475598159414       -1.54884700707110
C           -5.41579866072064        0.57568734829686       -0.22584033739900
H           -5.45661903047349        0.84378257755193        0.83471951739590
C           -5.72565652013318        1.80667602281849       -1.09842026100358
C           -6.40213854762516       -0.54231401667659       -0.49027511471508
H           -4.94338787079609        2.54412783900917       -0.90316959364480
H           -5.63696981658126        1.50188586599071       -2.14392736126361
C           -7.09541518433216        2.44985353754875       -0.87227336544898
O           -5.96764585651439       -1.53122475165302       -1.28760236176414
H           -7.86910783451549        1.70211406093634       -1.06725157791274
C           -7.25690842718347        2.95967268265490        0.55719855928513
C           -7.27855358129453        3.60103802300923       -1.86069750165699
H           -6.48126774654861        3.68659047876460        0.79059056086926
H           -8.22462023614089        3.44084793081427        0.67480696496351
H           -7.19526951985332        2.14442019641688        1.27245407278111
H           -7.18906946601191        3.24945274411416       -2.88588641866324
H           -8.26083986942973        4.05014544072064       -1.73827294068068
H           -6.52658028712016        4.36987173648737       -1.69413997981410
N           -7.56929399237114       -0.47215779271123       -0.01985439970863
H           -8.91460077717196        0.50710708375817        0.73066042344603
C           -8.55635409734496       -1.49348717643340       -0.29267658299194
H           -8.55092342603350       -1.79442785230376       -1.34836425548434
C           -8.33941351717861       -2.73834211311014        0.57483278289762
C           -9.93198509648434       -0.90042607275523        0.04474396566178
H           -8.28883293724185       -2.45450841971146        1.62418143082900
H           -9.16834733467770       -3.42544810328588        0.43047650719379
H           -7.41005539584496       -3.22739640827304        0.29375250109186
O           -9.86924889916668        0.27044842556267        0.66636328266676
O          -10.96374395424923       -1.45569446441947       -0.21371923722676
