42
 energy: -62.486132273431 gnorm: 0.000631388830 xtb: 6.7.1 (edcfbbe)
N           -0.95756029606783       -0.72272393339134        0.72376261417015
H            0.01145445099262       -0.82695322837888        0.44893571734176
H           -1.21207258893923       -1.54322340968578        1.26681971805159
H           -2.13724855948064        0.60024735319299        1.50384749083572
C           -1.82786410744732       -0.60904641124340       -0.44475303832180
H           -1.37040087116877        0.12565925278428       -1.12056071645152
C           -2.05126464906651       -1.91651672789799       -1.20415322308312
C           -3.13781003834097       -0.00231450914202        0.03733230810019
H           -2.55856856201513       -2.64016057659446       -0.56929117261818
H           -2.66325215886826       -1.73406294239028       -2.08122305790633
H           -1.09743426679580       -2.33340519962415       -1.52171918147949
O           -3.05132870193277        0.70522175499135        1.17115184148831
N           -4.18815460974320       -0.16053680012355       -0.63833230421195
H           -5.16140596490309       -1.47838203427404       -1.51300749415101
C           -5.45564333572078        0.39805479805138       -0.21349202028009
H           -5.46837929665895        0.62533770786086        0.85767404319553
C           -5.69624069798536        1.69120662000845       -1.01774509487942
C           -6.50494445184617       -0.65163736082430       -0.52017495744186
H           -4.87829343302074        2.37439097343100       -0.77596065426265
H           -5.61937668065302        1.44173318373824       -2.07913270682836
C           -7.03198395944413        2.39158414619747       -0.75930320634476
O           -6.10643995410209       -1.64972058411460       -1.31803014800683
H           -7.84150309353480        1.70008857068315       -1.00778749734455
C           -7.17964905628542        2.81665745042672        0.69894204490014
C           -7.14424883606657        3.61198220997719       -1.67238228734429
H           -6.36510697494911        3.47932740644165        0.98537364730565
H           -8.11869935352524        3.34610100468073        0.83978106515155
H           -7.17442049088813        1.95441336508576        1.35955771036682
H           -7.06430301926636        3.32344840167896       -2.71790929935294
H           -8.10294161998183        4.10305975795317       -1.52630389169254
H           -6.35495876966545        4.32804367250109       -1.45181208597527
N           -7.67445206639531       -0.52539730055952       -0.06430476733483
H           -8.98247625604776        0.50344514286965        0.68438929304027
C           -8.70814249810674       -1.48812179130455       -0.37780354910875
H           -8.69686959240959       -1.76564322731041       -1.43982428906314
C           -8.57644266105189       -2.76277621607435        0.46325348531491
C          -10.05772626338648       -0.83282949649026       -0.05223526100096
H           -8.54281724784392       -2.50829207668680        1.52081305338954
H           -9.43381394740144       -3.40382691079364        0.27799119114964
H           -7.66465668397837       -3.29041592794030        0.19490656947250
O           -9.94702385586752        0.31976925238619        0.59702701662858
O          -11.11172623997967       -1.32581120515525       -0.34538190954196
