42
 energy: -62.486133515904 gnorm: 0.000479482410 xtb: 6.7.1 (edcfbbe)
N           -2.20823130925306       -1.67289977641447        1.44494353761284
H           -1.25396480502200       -2.01195155308073        1.45073040239828
H           -2.81757955761520       -2.47133582325584        1.60180013180173
H           -3.33768853256582       -0.31971604069245        2.20709639497813
C           -2.53490924464564       -1.04479704380732        0.16633412049859
H           -1.71548917784472       -0.35689738152727       -0.07873724319633
C           -2.73709865624875       -2.02070446615759       -0.99112038329232
C           -3.77664241960872       -0.19312310467395        0.38997590679759
H           -3.53397943432083       -2.72208908314822       -0.75214321696611
H           -3.02333051478637       -1.46941355907804       -1.88001180202819
H           -1.82190131152329       -2.57580735708260       -1.18740318138959
O           -4.01886280108094        0.13172971665091        1.66878027906355
N           -4.47570910266847        0.15316207433749       -0.59712476152527
H           -6.83941094551181        0.39435630471309       -2.48974684725234
C           -5.66761268494846        0.96261571670914       -0.40470783313729
H           -5.73568884651079        1.32403351803981        0.62785324466536
C           -5.63311990276213        2.13954714678402       -1.38232557148833
C           -6.80556873774326       -0.01277115664020       -0.62451977232772
H           -4.77694600721680        2.76127271068592       -1.11160318511653
H           -5.43153833497879        1.76437509883688       -2.39120335058825
C           -6.90155602598637        3.00321554279197       -1.37853492377414
O           -7.30140916063961       -0.17706634571722       -1.86291455581944
H           -7.77740583372283        2.37023474288288       -1.56189153691841
C           -7.09694695720538        3.70254734760255       -0.03519775073228
C           -6.81370081161386        4.03898178355356       -2.49911558071154
H           -6.22408739145291        4.30325930925820        0.21119538269278
H           -7.96325711925928        4.35864214741277       -0.07796986392920
H           -7.25932541414187        2.98205901783945        0.76179570679230
H           -6.70159668745433        3.55904071072695       -3.46934740541002
H           -7.71305268569821        4.64937455704410       -2.52364596921412
H           -5.95978957311590        4.69419198549695       -2.34092062448542
N           -7.15953194192054       -0.71274600310907        0.36117530057952
H           -7.07098248873933       -1.03747420530573        2.12773562097081
C           -8.14567406721540       -1.76367871249689        0.26787430973578
H           -9.06801482974913       -1.41249282666478       -0.21140601967540
C           -7.62461600104004       -2.98478957883893       -0.49853216381662
C           -8.46857176610338       -2.19837902165171        1.70694274595785
H           -6.68042165313655       -3.31431340962734       -0.06885678924639
H           -8.35009933408826       -3.78984439736817       -0.42272524641210
H           -7.46894754687336       -2.73202113363314       -1.54381503059964
O           -7.67084553622364       -1.65265765447677        2.61575028210520
O           -9.34108610152931       -2.97769560613715        1.97447234478150
