42
 energy: -62.486133496408 gnorm: 0.000481053432 xtb: 6.7.1 (edcfbbe)
N           -2.34072445808523       -0.77738687978347       -0.35429615533556
H           -2.16917676261806        0.11481302561356       -0.80602605454275
H           -2.01333131904364       -1.51124351516195       -0.97261195580323
H           -2.38858081301247       -0.47688609382125        1.69630003808291
C           -3.76065654021947       -0.95051177956313       -0.04977098985148
H           -4.42103149364980       -0.77311901058948       -0.91305918044088
C           -3.97330617893213       -2.37020316653531        0.47630156167261
C           -4.07509857968051        0.04539727958368        1.06934877879543
H           -3.31935456120581       -2.55854808297115        1.32487928786707
H           -5.00160068137969       -2.49934985530643        0.79631116168657
H           -3.74517077565868       -3.09728030455698       -0.30142903205913
O           -3.14359377452707        0.04299135177395        2.02808030802724
N           -5.02973588375998        0.85463005534843        1.19995028433426
H           -7.22998097131928        0.90374837138034       -1.90894753326388
C           -6.08445792441490        1.12077220284816        0.26428004980922
H           -6.84248834353230        1.65145006076744        0.86152840725710
C           -5.56879490110073        2.08933144368502       -0.82675496898534
C           -6.81505272569429       -0.08417215127867       -0.30502961787902
H           -4.66713020003429        2.56319623572372       -0.43364548901279
H           -5.26567721303620        1.52351434433446       -1.71444016454587
C           -6.56520827481099        3.19805024378935       -1.20623176190853
O           -7.38449678247026        0.03123247806717       -1.52500945533621
H           -7.58290975690903        2.78852672250877       -1.25924453511209
C           -6.56149480019147        4.29850043993584       -0.14751421954744
C           -6.20906380451969        3.78322558223710       -2.57259017253258
H           -5.59358175766199        4.79375164024632       -0.12418986524441
H           -7.32350124861961        5.04213335235243       -0.36840076921213
H           -6.75601557464325        3.88885024636995        0.84013863095918
H           -6.26247457801947        3.02847099512728       -3.35584679712937
H           -6.89432957650390        4.58697536045177       -2.83023435751160
H           -5.19968860507937        4.18828130333623       -2.55643862175738
N           -6.96214844063473       -1.10983541516286        0.41074418526576
H           -6.91732843026180       -1.83367733361540        2.09384167707685
C           -7.77654332424069       -2.23277828745319       -0.00037246138958
H           -8.79771419289253       -1.88942851427609       -0.22064039052775
C           -7.26089573903740       -2.99466866550560       -1.22386303329319
C           -7.86873346907976       -3.18534878720311        1.20422225337448
H           -6.22779314876887       -3.29782341152798       -1.07504634054928
H           -7.87051042707278       -3.88387139335586       -1.35771676042889
H           -7.32759127912591       -2.37315541613794       -2.11252370007205
O           -7.29839013902674       -2.71658707006477        2.30760806018965
O           -8.41083257229945       -4.25381181382964        1.14746386075460
