42
 energy: -62.486133509486 gnorm: 0.000479919866 xtb: 6.7.1 (edcfbbe)
N           -1.67341719230303       -1.77797395492819        0.13846431316306
H           -1.42818666164237       -2.76131979008963        0.13613380267642
H           -1.37766749232112       -1.39255156813458        1.03143871153209
H           -1.54470256861927       -0.18741456301431       -0.92239937864509
C           -3.11640643834405       -1.59815469053733       -0.01850869736584
H           -3.43352144105236       -2.22563187875233       -0.86176199609532
C           -3.94242424222603       -1.94989852223051        1.21544286584199
C           -3.36585132678967       -0.14032710075548       -0.44531145915989
H           -3.61180022716262       -1.35929203070795        2.06801058903833
H           -4.98535319259085       -1.71876322136009        1.02141667770032
H           -3.84503176795326       -3.00600972675033        1.45943640103751
O           -2.28110265582688        0.45182750621040       -1.00045225360635
N           -4.42041378570444        0.46904368097041       -0.28003602855402
H           -7.04435002228833        0.82995669021079       -2.32191152401257
C           -5.67085787358901        1.08001287505584       -0.27307457867511
H           -5.85670523766335        1.38883636560343        0.76431269077400
C           -5.71423772244724        2.32920134976074       -1.17929209871680
C           -6.72638223010341        0.02770284660279       -0.61045271028983
H           -4.85126202497379        2.94005059020493       -0.90915898296943
H           -5.55492017276496        2.03009267061529       -2.22092799801621
C           -6.99344266712651        3.16758891985058       -1.04061379691608
O           -7.31691178149946        0.05109336005749       -1.81896373538824
H           -7.86935984996149        2.50755993763044       -1.01965185829741
C           -6.98245046016134        3.97188498030027        0.25772331361580
C           -7.12780397589073        4.11224361022249       -2.23496199001734
H           -6.13042908625205        4.64784651660339        0.27666308605926
H           -7.89099499493439        4.56354935166864        0.34217590635285
H           -6.92402398228180        3.31905259879194        1.12488995426576
H           -7.19859704975003        3.55996731154938       -3.17038407128760
H           -8.01976186658814        4.72622934831963       -2.13661000641422
H           -6.26369973609498        4.77048650792852       -2.29180579775200
N           -6.93512809035455       -0.89722520922915        0.22273663564894
H           -7.03016038537259       -1.39004251979857        1.98270945246594
C           -7.84195942875551       -1.98730420392746       -0.06477473363119
H           -8.75460575693211       -1.63366885782765       -0.56244145894178
C           -7.18856116158309       -3.05622980104950       -0.94682885013140
C           -8.24068198306999       -2.62534558251223        1.27437814482479
H           -6.26021153504130       -3.39671572863050       -0.49351657960806
H           -7.86705489503601       -3.89892896771629       -1.04439727436023
H           -6.97472988045531       -2.64626490794166       -1.93052050321051
O           -7.61551762174298       -2.10389426404995        2.32452741624380
O           -9.03550288476767       -3.51916580862629        1.35961023556339
