42
 energy: -62.486133517166 gnorm: 0.000479638281 xtb: 6.7.1 (edcfbbe)
N           -1.84788158378181       -0.20436555700487        1.53262919496237
H           -0.89704623503576       -0.53840846195167        1.43050085861206
H           -2.23943513718673       -0.65238290972880        2.35697267115536
H           -2.86061550864042        1.43912501637825        1.49528828422930
C           -2.65122756958889       -0.55363273171263        0.36008041493209
H           -2.07757666149890       -0.24834215594719       -0.52571479874874
C           -3.00974448386792       -2.03271288570723        0.24375470137422
C           -3.89305568106143        0.32295013560670        0.39640311148012
H           -3.53274147761938       -2.36668418907129        1.13669964031671
H           -3.66396902844563       -2.17700937388703       -0.60859739575841
H           -2.11065196590087       -2.63197853917416        0.11545897342418
O           -3.74250300566875        1.47988817781903        1.07353622724089
N           -4.94189717591198       -0.05514757624629       -0.18059139303923
H           -8.47076833678556        1.36105945379703       -0.43093547952374
C           -6.12014680771269        0.77259341124616       -0.21536668025728
H           -6.13090834517102        1.49389969894642        0.61892137257360
C           -6.20147980107570        1.53841280353729       -1.55923728398498
C           -7.31937390685720       -0.13321421182336       -0.05453636690117
H           -5.23751958722849        1.43759576687256       -2.06068389414344
H           -6.94176078734633        1.05518908322459       -2.20232641939861
C           -6.53030058553254        3.03049101608212       -1.41089671690185
O           -8.54352409267257        0.42476930646681       -0.20686138407544
H           -7.34002665611063        3.15848557864326       -0.67910514441372
C           -5.31209675942464        3.80369164501147       -0.91156369431902
C           -7.00467815448142        3.59723887973536       -2.74798701235504
H           -4.52789217699367        3.79002032157010       -1.66554456500273
H           -5.57370862018314        4.83934532620590       -0.70682861074587
H           -4.91530545593678        3.36123042219533       -0.00168357649265
H           -7.90769175175243        3.09422810510948       -3.08856810472813
H           -7.21936089978965        4.65928922912838       -2.65507914512938
H           -6.23502081436160        3.46832844765574       -3.50553370691072
N           -7.13726615695804       -1.33791986695625        0.24155852907677
H           -5.96243111811215       -2.57944805706115        0.68860314494226
C           -8.18641290070425       -2.30100256496305        0.45115995291005
H           -8.96573240022112       -1.92268434358975        1.12493905914223
C           -8.83846769220681       -2.74248969723621       -0.86331362493997
C           -7.51398951791375       -3.52471567268589        1.10057856284461
H           -8.07302795039623       -3.07525636162101       -1.56145076160777
H           -9.52312335235906       -3.56266009934910       -0.66635345241421
H           -9.38486487865869       -1.91238844649904       -1.30394107068076
O           -6.18997541486449       -3.45569365025932        1.09613845284263
O           -8.13099081285038       -4.45171994637976        1.54841162172250
