42
 energy: -62.486133508380 gnorm: 0.000480467837 xtb: 6.7.1 (edcfbbe)
N           -1.43577538779683       -2.10082399256149       -0.17867501089142
H           -1.23438383185679       -2.26987753094503        0.80134114489640
H           -0.58685419657676       -2.26685409400885       -0.70499816694781
H           -3.28692349016789       -2.58178070347746       -0.37448490079133
C           -1.92095186525334       -0.73775795766153       -0.38875114886918
H           -1.43087395621069        0.01051361942428        0.24881040285862
C           -1.74083057236471       -0.33857884809614       -1.85315750300845
C           -3.41220162649945       -0.73271870327250       -0.07669872394322
H           -2.23504241730630       -1.05938724858081       -2.50104147121584
H           -2.17866646533671        0.64141299564448       -2.01638861426891
H           -0.68379183361019       -0.30202622602812       -2.10936200348935
O           -3.99844326999418       -1.94168227925603       -0.16439214016071
N           -3.96190417626694        0.36431802627190        0.17965500326002
H           -5.19980651187855       -1.37979733316832        1.84116085754187
C           -5.36325324389302        0.61216090819332        0.42491245895004
H           -5.40027859472562        1.06977984219248        1.42614303581798
C           -5.81506997915537        1.65533306848827       -0.60885196124944
C           -6.28516005398627       -0.59055301760157        0.46693946801728
H           -4.99190823650933        2.36058792061911       -0.73496607440986
H           -5.96514568366357        1.13853921532927       -1.55720793843043
C           -7.08681291511695        2.41875361931686       -0.22290410237515
O           -6.07087337575696       -1.49794239737922        1.44504715448592
H           -7.81977154253733        1.70368814847371        0.16087047706552
C           -6.80310689374527        3.46076574517646        0.85705100476121
C           -7.67282171189751        3.10053698135854       -1.45810054627763
H           -6.08834052500006        4.19663208429133        0.49446405842623
H           -7.71884349258526        3.97945125088196        1.13121358481558
H           -6.39579192256975        3.00208820435138        1.75460862470726
H           -7.94046207347540        2.36931089962569       -2.21681666029532
H           -8.56727838356974        3.65984579458153       -1.19436845763048
H           -6.95069751657085        3.79289913119577       -1.88595166149398
N           -7.28844377935893       -0.64023823005508       -0.29114335006589
H           -8.12037148676789       -0.08710511288179       -1.78890076380457
C           -8.23978835829789       -1.72508179555755       -0.24062320440639
H           -7.74743755679926       -2.69849538484665       -0.12441846709786
C           -9.24501278986365       -1.53780984999300        0.90164439291707
C           -9.01182456387925       -1.70606157551869       -1.56838360247994
H           -9.71886063591943       -0.56096576429334        0.82382867523542
H          -10.00799977906319       -2.30845562660579        0.83828420887996
H           -8.73509452368674       -1.61035527635680        1.85894664009750
O           -8.79136302935005       -0.61212398321971       -2.28814385644480
O           -9.75792901288783       -2.58217023141990       -1.90725597006112
