42
 energy: -62.486133508000 gnorm: 0.000480388448 xtb: 6.7.1 (edcfbbe)
N           -2.19105992683419       -1.58091335791489        1.82825176775430
H           -1.80996957789569       -0.87453204338925        2.44845308582742
H           -1.48285238698540       -2.29003255721560        1.68426378228946
H           -4.08389014976774       -1.54091879821184        2.22030811721377
C           -2.60635125445140       -0.99306898829609        0.55689318796844
H           -1.92246699622962       -0.22119902861084        0.17707550059067
C           -2.75301996703062       -2.09339969517028       -0.49580196212550
C           -3.97059399521659       -0.35547672856856        0.77362893361412
H           -3.38876784831583       -2.89166835007099       -0.11978140109878
H           -3.19473793105962       -1.67761099384773       -1.39612048396752
H           -1.77817910926789       -2.50958591837399       -0.74259426990270
O           -4.66534559218319       -0.87192407513436        1.79989235582930
N           -4.31316743456318        0.59038198493609        0.02149228434925
H           -7.83812626132265        1.88332659485370        0.70906468455768
C           -5.60866782265375        1.22215780048058        0.01007022429611
H           -5.61330240769100        2.00266059053672        0.78652405372642
C           -5.71326428292713        1.87584161131329       -1.38732907300321
C           -6.79927740478006        0.32260217304701        0.25042283681784
H           -4.76787660743419        2.39456910443444       -1.55299803234786
H           -5.76985470678719        1.06173529370314       -2.11233513700262
C           -6.87247857067440        2.84781274765916       -1.62731388413874
O           -7.95874461165231        0.93265667553712        0.59838191406026
H           -7.82480231260177        2.33968436292586       -1.43973802762489
C           -6.77496738904184        4.08916007934735       -0.74045142905041
C           -6.86416955182925        3.27325337278988       -3.09597392768186
H           -5.84113812984907        4.61224760915948       -0.93444572546832
H           -7.59728612861521        4.76907073840913       -0.95263054527253
H           -6.80795942374845        3.84722869251382        0.32053917991447
H           -6.96343385566712        2.40813539479817       -3.74695124287938
H           -7.68868263436379        3.95225393545917       -3.30086631554979
H           -5.93295068009476        3.78021823866548       -3.33854281855956
N           -6.70238380366366       -0.92705584115118        0.15990728760042
H           -5.64969428562439       -2.34945861045526        0.27965664750873
C           -7.82456858311250       -1.80558519591446        0.39058703422200
H           -8.38702365097968       -1.51410930793141        1.28739421692420
C           -8.78224581120458       -1.83722961122411       -0.80438375185693
C           -7.25489197343694       -3.21535771140968        0.61160716049654
H           -8.22954925478546       -2.05529481430138       -1.71617155849293
H           -9.52562347572656       -2.61313473030484       -0.64445163636449
H           -9.27862868425937       -0.87596549127641       -0.91050494518497
O           -5.93649827240793       -3.27735222764799        0.46905827447021
O           -7.93769850169453       -4.16614879071528        0.87484849084727
