42
 energy: -62.486133510580 gnorm: 0.000480142095 xtb: 6.7.1 (edcfbbe)
N           -1.18328527215117       -1.21677361984791        0.84013279289170
H           -0.88294835471802       -0.43788372499531        1.41695192402954
H           -0.35993704113167       -1.74439018024106        0.57566943519772
H           -2.96673606116949       -1.56101637230480        1.54051304258473
C           -1.89927485328595       -0.74029454066360       -0.34082201276545
H           -1.45773679146412        0.15341726811720       -0.80295130262817
C           -1.97372389387646       -1.85688586583350       -1.38521000682452
C           -3.31120166527101       -0.40026754711940        0.10527531499959
H           -2.45242997471107       -2.73856832794157       -0.96269156534490
H           -2.53786735327259       -1.51795038829725       -2.24977704701511
H           -0.97348095475428       -2.13138927318935       -1.71359472678401
O           -3.73336426690852       -1.05723805881692        1.19856747410887
N           -3.98761974476702        0.44029824202606       -0.54793764351518
H           -4.83725624349201       -1.43553314418816       -1.18616259880108
C           -5.36021396996892        0.72766847418957       -0.18561612999975
H           -5.41857166277955        1.01273832968705        0.87236869642058
C           -5.77483971056902        1.91425254030815       -1.07686592706283
C           -6.27149034479286       -0.47348778873240       -0.37203719001041
H           -5.02042218976316        2.68785391305224       -0.92039149030291
H           -5.69321974197544        1.58714807078225       -2.11552740903627
C           -7.16416110197949        2.50999376281098       -0.84603276889180
O           -5.75964413870836       -1.58512384539955       -0.93222260900176
H           -7.91274234794403        1.75596929823754       -1.09992051714596
C           -7.37103206718183        2.94368175652405        0.60257556050184
C           -7.35703676610768        3.70430422770207       -1.78015822016216
H           -6.61203394138161        3.66715338485552        0.89416779192772
H           -8.34775390812012        3.40735766420865        0.71730465972052
H           -7.31786985250220        2.09295863286759        1.27639873402773
H           -7.22164045902340        3.40891222387018       -2.81786605822817
H           -8.35895353070153        4.11113613874333       -1.66877981318494
H           -6.63978871908874        4.48967548893288       -1.55031373445047
N           -7.49988812026225       -0.35300426501671       -0.11348942714272
H           -8.96188576875597        0.62141140289648        0.46010436053997
C           -8.42335496870315       -1.44137754672049       -0.34572412685287
H           -8.28925506696578       -1.88143420897283       -1.34222757535576
C           -8.27946796749367       -2.54878259609586        0.70532411572570
C           -9.84360875602915       -0.87088607723502       -0.23838446438670
H           -8.37681513689716       -2.12744386934249        1.70404772492298
H           -9.05774416484608       -3.29145643498617        0.55370804518382
H           -7.30473732448652       -3.02072922922125        0.61361359643913
O           -9.89205608815950        0.33899930274226        0.30609534507037
O          -10.81910097280350       -1.47503905544325       -0.58917914429908
