42
 energy: -62.486133509407 gnorm: 0.000479872027 xtb: 6.7.1 (edcfbbe)
N           -0.92364802008437       -1.19331919829507        0.22100076660716
H           -0.50373718223219       -0.47367036985196        0.79994953215318
H           -0.18061877833880       -1.66032641918753       -0.28536719851154
H           -2.43452303452820       -1.74841474309526        1.19538592624605
C           -1.90056846241199       -0.61543499511205       -0.70211319416238
H           -1.61412653550005        0.36841944129509       -1.09521456426880
C           -2.14435225870951       -1.56951301944202       -1.87192381956205
C           -3.20793362312593       -0.46401548749844        0.06014232645161
H           -2.43323148258155       -2.55151292358170       -1.50283400794256
H           -2.94089366003122       -1.17869578194436       -2.49806604617255
H           -1.24234703484149       -1.67189961473404       -2.47146499296310
O           -3.30763364334364       -1.30116574941201        1.12796742587850
N           -4.03480941980104        0.39058463864395       -0.32157909821818
H           -5.05849196162879       -1.47911110963308        1.43397525960423
C           -5.36797194814552        0.64642553873975        0.18253561437927
H           -5.28350023924917        0.99972900680313        1.22484695793891
C           -5.95199425545268        1.76180222552477       -0.69022247593593
C           -6.26315889531024       -0.57951183813413        0.23234428525508
H           -5.16462163944304        2.50321374611466       -0.83318216192084
H           -6.18245179453450        1.33160001995887       -1.66435628814688
C           -7.19672836997900        2.44156291681876       -0.10996827132871
O           -5.96286727583290       -1.56912324257991        1.08679204472370
H           -7.87756832605183        1.66872273190474        0.25796834742469
C           -6.83672407014927        3.37029746817339        1.04842074296024
C           -7.90754807428378        3.23443511498596       -1.20544143409713
H           -6.15438007948677        4.14834350149442        0.71208286667921
H           -7.73140970736076        3.84740368987507        1.44194508178504
H           -6.36261973193664        2.82671515371633        1.86200952325232
H           -8.22789977890760        2.58072446584933       -2.01287791566707
H           -8.78540684602381        3.73548374213581       -0.80416404872321
H           -7.24138824741611        3.98959129096804       -1.61740298547087
N           -7.29183441042537       -0.60593916509794       -0.49705029997212
H           -8.24024539005613        0.05837636496185       -1.87673501920325
C           -8.20785136690581       -1.72165648906026       -0.49242707218154
H           -7.68496812979408       -2.68642255192371       -0.47980418811414
C           -9.16248068710744       -1.66166087775002        0.70593501724945
C           -9.04368619467898       -1.61717419848979       -1.77672878953024
H           -9.66763688419246       -0.69785906229764        0.73087885825593
H           -9.90453683083085       -2.44977674573661        0.61455058975483
H           -8.60433946415893       -1.79461342979904        1.62930916400264
O           -8.91356216460453       -0.44811813815358       -2.39227948973960
O           -9.75989536584135       -2.49652179155403       -2.16790182520929
