42
 energy: -62.486133495242 gnorm: 0.000482622880 xtb: 6.7.1 (edcfbbe)
N           -1.97667567574269       -1.87096619434118        1.19033206738764
H           -1.74447821760723       -1.29968754876120        1.99628277636295
H           -1.18221069930443       -2.46738596134717        0.99127829619832
H           -3.91228917783101       -2.00689693976932        1.36563445806792
C           -2.29955068797658       -1.03256135067658        0.03853972896190
H           -1.63218576363287       -0.16872405758255       -0.08826990284306
C           -2.27330325597808       -1.87709497873856       -1.23662562158367
C           -3.71541562761493       -0.52000094928388        0.24404755207627
H           -2.96377396837494       -2.71329692250937       -1.14704268478460
H           -2.56201667238428       -1.26602478168935       -2.08654113709366
H           -1.27282889983726       -2.26764286485563       -1.41079736224710
O           -4.48699394842169       -1.29462777386757        1.01664260068557
N           -4.06705201925983        0.54854203124677       -0.31970052435456
H           -5.60395341019292       -0.18123237059577       -2.25146618077881
C           -5.42546330935262        1.05397027515849       -0.21371901717228
H           -5.61216649073132        1.37207224406386        0.81792330444497
C           -5.55987527320796        2.24783093557952       -1.16862716837617
C           -6.42418324338891       -0.03173038949502       -0.53533544836846
H           -4.90529891449997        3.04003013614398       -0.80295578220466
H           -5.18398102485103        1.95537394968427       -2.15337603854589
C           -6.99076219188610        2.77828333360420       -1.30885970737828
O           -6.32576253701940       -0.59388312597895       -1.75926712678458
H           -7.63081197115180        1.97397708835991       -1.68988351847203
C           -7.55522670458268        3.24347397608906        0.03091056160001
C           -7.00847388310714        3.92663704873978       -2.31663757224930
H           -6.89518782535834        3.97843905781924        0.48669624368252
H           -8.53045554649214        3.70208982409929       -0.11430233165465
H           -7.67516754865735        2.40621089052499        0.71277926046781
H           -6.62299949692921        3.60369193585068       -3.28138339250877
H           -8.02245009876675        4.29183447888915       -2.45940916177849
H           -6.39413915974537        4.75065577416694       -1.96015498183093
N           -7.26253234326775       -0.38918171006405        0.33105367712855
H           -8.03849184788695       -0.17642989223054        1.94560948885909
C           -8.21890380449291       -1.44539135195226        0.08760624477347
H           -8.73402723481892       -1.31368799538220       -0.87227669632143
C           -7.56092687778512       -2.82953667372020        0.11211181154997
C           -9.25416586173098       -1.38354283063607        1.22039416680524
H           -6.98591779447250       -2.94491286144575        1.02848634483714
H           -8.33141486818674       -3.59430825246021        0.07031098485305
H           -6.89497371486059       -2.93749816411334       -0.73995152142834
O           -8.89762583982026       -0.58023494269818        2.21500046701089
O          -10.27207781386495       -2.01865790823244        1.21387796170273
