42
 energy: -62.486133509579 gnorm: 0.000480572283 xtb: 6.7.1 (edcfbbe)
N           -1.84552261559859       -1.61536454859479        1.25485304446098
H           -0.86537652064814       -1.86572622178758        1.21498603882075
H           -2.37453912350172       -2.46957077284190        1.40786712664372
H           -3.03425041188969       -0.38613138256952        2.11105590943421
C           -2.27808636672507       -0.97958821240662        0.01178931553731
H           -1.51582086806279       -0.23908713181444       -0.26154780586299
C           -2.48539062315418       -1.94324868805865       -1.15541549477654
C           -3.55342919697297       -0.20577497436951        0.32109941906731
H           -3.23947454807323       -2.68466409194082       -0.89828325270432
H           -2.82894287751740       -1.39098168212118       -2.02328475549009
H           -1.55500802651551       -2.45301705192395       -1.39821207187527
O           -3.76442546751474        0.04404450826680        1.62077773244626
N           -4.29590610549248        0.16455384923574       -0.62520155516441
H           -6.04707591341994       -0.09486957688509       -2.46302580303861
C           -5.52096177865222        0.89856683317582       -0.35936947829395
H           -5.59943834963512        1.18908263155828        0.69380355925287
C           -5.58140205654153        2.13521287682623       -1.26375500299450
C           -6.62351426712312       -0.09033896247832       -0.65573810345523
H           -4.84359479112521        2.85269095375244       -0.89905712806370
H           -5.27748276126433        1.85450202581246       -2.27665713561013
C           -6.96314344956487        2.79840547686124       -1.30672419315952
O           -6.75045708703112       -0.49291331257433       -1.93326476588018
H           -7.69241030422769        2.07522820561615       -1.68953984594936
C           -7.41610007622453        3.24498352990815        0.08123552120557
C           -6.92421300522096        3.99215919006626       -2.25951046157501
H           -6.66742960957064        3.88996729307759        0.53627634835450
H           -8.34834273283833        3.80024231100280        0.00907617939171
H           -7.58226988613050        2.38933570041942        0.73002126775704
H           -6.61573157403985        3.68482421151990       -3.25655167050693
H           -7.90689598902633        4.45139894211296       -2.33303003879876
H           -6.22236444842271        4.74089967747541       -1.89842332403697
N           -7.29375325687731       -0.56547524061201        0.29821734317413
H           -7.84146162449784       -0.48127495611945        2.02268921303231
C           -8.30645979007348       -1.57785867687415        0.09413632199112
H           -8.95884541935552       -1.33611361835183       -0.75414349862968
C           -7.68821339890400       -2.96123162365229       -0.13647604061626
C           -9.15639526060766       -1.63196351899023        1.37265606123547
H           -7.00476816808453       -3.20008410320082        0.67622047120928
H           -8.47821703897457       -3.70614607477220       -0.16826656452544
H           -7.14162533100499       -2.97091960745419       -1.07610228711040
O           -8.65281999975998       -0.91965637177863        2.37285731766834
O          -10.16463113440905       -2.27612363445462        1.46089711611393
