42
 energy: -62.486133506874 gnorm: 0.000480499443 xtb: 6.7.1 (edcfbbe)
N           -1.48689911991912       -0.66018067017664        1.30120214458424
H           -0.61244798827343       -1.13952013928299        1.12155555809255
H           -1.85639918476191       -1.02337419985565        2.17578875218925
H           -2.26144716126416        1.13468731625058        1.27038786363832
C           -2.44505935603837       -0.91475889494875        0.22401172029085
H           -1.93071531667212       -0.68785685665457       -0.71965945862957
C           -2.99097232306334       -2.33786408497177        0.17042779187662
C           -3.55566303679278        0.11148822545768        0.37091104633348
H           -3.52362821862061       -2.57352238392185        1.08773615793369
H           -3.68514551553679       -2.42974806734394       -0.65665963884434
H           -2.17809841793635       -3.04928266745033        0.03842467437425
O           -3.17613271843007        1.26894191223216        0.95322332704080
N           -4.71208827042538       -0.14875501432518       -0.04255282988833
H           -7.92102419388854        1.73116581870555        0.77785637999209
C           -5.76518630363041        0.83346640806989        0.03969063207276
H           -5.61444843672110        1.52346460071491        0.88555184264441
C           -5.75606323211842        1.62420012944450       -1.28762492058659
C           -7.06619274937421        0.09188388466517        0.22892284527064
H           -4.75615794986526        2.05151714785274       -1.39487514712147
H           -5.89398616522295        0.89461969316069       -2.08824296638835
C           -6.78927645000271        2.74544559164176       -1.43581188733767
O           -8.14745433532440        0.80483074397167        0.62970681790037
H           -7.79663681347335        2.33639483145957       -1.30272333662166
C           -6.55659910453027        3.87318715885477       -0.43036453908001
C           -6.70925867240473        3.30604437580618       -2.85602994588674
H           -5.57129208500102        4.30845815284596       -0.58227895288965
H           -7.29989252268592        4.65650887977324       -0.56227299296982
H           -6.61124638248295        3.52884762747051        0.60077664806256
H           -6.91233831734921        2.52814864408717       -3.58790028611051
H           -7.43699878693222        4.10272002946181       -2.99179791020540
H           -5.71806873468229        3.70992871184664       -3.04983957584578
N           -7.08745176186384       -1.15145306582656        0.06768520079224
H           -6.08914679192694       -2.61607358520508        0.01438144700114
C           -8.24660807246405       -1.97891807268860        0.26832549699451
H           -8.82067400589169       -1.68693895002359        1.15763417069778
C           -9.17597251833901       -1.95923804922843       -0.94942716139091
C           -7.71718375043121       -3.41198627464491        0.46297915624627
H           -8.61205234847525       -2.19780458394886       -1.84871386369308
H           -9.96062514646853       -2.69827015354585       -0.81375097120102
H           -9.62170223082263       -0.97376196084101       -1.06062750317909
O           -6.41761882432487       -3.52728416950585        0.23162220895265
O           -8.42033794304625       -4.33138371698388        0.78128689731433
