42
 energy: -62.486133514561 gnorm: 0.000479478512 xtb: 6.7.1 (edcfbbe)
N           -1.05825605975478       -1.36703152843155        0.35849304750603
H           -0.07683485981367       -1.35452169346177        0.10936558525650
H           -1.36082316783996       -2.33755488159954        0.35321607535199
H           -2.22876206379601       -0.62363740819916        1.68041661967288
C           -1.85250183608948       -0.59599857692013       -0.59798771442869
H           -1.32199104133991        0.34708008650174       -0.78162761645830
C           -2.11058227090844       -1.29613941440106       -1.93033680941899
C           -3.15668466272708       -0.22993698317761        0.08974708956650
H           -2.60128281096730       -2.25323757462405       -1.76205385541580
H           -2.76501412480010       -0.67986393761413       -2.53759247768761
H           -1.17531307546347       -1.46539450344490       -2.45975896192758
O           -3.13112203266410       -0.32611457549574        1.44406869121096
N           -4.15713817256960        0.10958844149869       -0.58613640947795
H           -5.02526967985329       -1.44647453131869        1.27953925182197
C           -5.38177519738855        0.55940868586287        0.04842802111341
H           -5.19637596588288        0.88450182070875        1.08471469611022
C           -5.94858863387807        1.71055654318467       -0.78398563899080
C           -6.30265435162173       -0.63927575520420        0.09981809171049
H           -5.14509154581709        2.43058209649230       -0.95027867722469
H           -6.23460372260150        1.30186131268964       -1.75257431548203
C           -7.14392610071772        2.41800346775630       -0.13591330905916
O           -5.87383335571000       -1.66510668636484        0.86768523271002
H           -7.82609054572873        1.65839852987540        0.25628419482870
C           -6.70078531822504        3.32105697547110        1.01393089900834
C           -7.88581700779492        3.24301848860857       -1.18595817407027
H           -6.02531476823623        4.09306448936196        0.65064950533417
H           -7.56233966534155        3.80692778080904        1.46605368725354
H           -6.18988529498549        2.75552749272655        1.78915817163353
H           -8.26502277540057        2.60769410059001       -1.98240690387578
H           -8.72745463740490        3.76354441167697       -0.73516578463260
H           -7.22027579902494        3.98412866624434       -1.62359605361498
N           -7.38445030262303       -0.65484143288758       -0.53853121285080
H           -8.43674136386454        0.07105783941199       -1.80633921418446
C           -8.27854760051755       -1.78863551278943       -0.52886168150011
H           -7.74003237340900       -2.73578099860044       -0.65790133210519
C           -9.09724636489173       -1.85733372610027        0.76510427090347
C           -9.24859049291179       -1.60208537201858       -1.70698064444929
H           -9.60556323708214       -0.90996391153536        0.93418215210162
H           -9.83787381200309       -2.64728403642431        0.67857823835869
H           -8.44285173194711       -2.06502203211025        1.60789812809511
O           -9.16462546192449       -0.40538031635323       -2.27375215880457
O          -10.01825797972401       -2.45141168541196       -2.06065764409992
