42
 energy: -62.486133510980 gnorm: 0.000480252897 xtb: 6.7.1 (edcfbbe)
N           -0.89951088087646       -0.38862823185107        0.37995239767982
H           -0.00787023737519       -0.70683913349170        0.02004052350085
H           -1.01919544000997       -0.79697646776200        1.30343440430837
H           -1.93847839821672        1.22416903506755        0.60783019277413
C           -1.99586215271257       -0.80924259260268       -0.49099326614455
H           -1.71109958888159       -0.54421549969857       -1.51854238489416
C           -2.32676228524292       -2.29894720291451       -0.42685326326092
C           -3.20140361835732        0.05088540610798       -0.13640649966400
H           -2.59884786298353       -2.57724629718492        0.58929123068960
H           -3.16975563070419       -2.51619266997503       -1.07399188991034
H           -1.46987250483717       -2.89179898465088       -0.74103528502299
O           -2.90482168619431        1.21928226020844        0.45343659897866
N           -4.35837138915459       -0.36838921481338       -0.39429746831488
H           -5.62447858200453       -0.80930266712821       -2.13173435350165
C           -5.55013688577272        0.41686522119481       -0.14319809393978
H           -5.66688625142629        0.60222736400696        0.92895895472376
C           -5.54630968399867        1.75756512483926       -0.90225081494716
C           -6.69755660631349       -0.43562836820412       -0.63294071254166
H           -4.75555103772365        2.38302426347866       -0.48665679388379
H           -5.29972187899539        1.55946043628396       -1.95034824541445
C           -6.87942209196603        2.51011129870392       -0.83771527837877
O           -6.54289332847496       -0.95790347082801       -1.86123078236032
H           -7.67077719123557        1.86198412542980       -1.23011274588839
C           -7.23922365231887        2.89985635995771        0.59306147964426
C           -6.79557661385092        3.75696546837533       -1.71706186637690
H           -6.44030448136090        3.49035349306179        1.03687627679745
H           -8.15052694756727        3.49275314265379        0.60071081518763
H           -7.40689272036747        2.01850873384626        1.20547463535807
H           -6.56486928478117        3.49145604264024       -2.74658187477311
H           -7.74181176892708        4.29207772830847       -1.70706160057715
H           -6.01891963505523        4.42580510187587       -1.35185021827233
N           -7.68275616752080       -0.66638005126562        0.11694681371837
H           -8.71734492140882       -0.17399864588524        1.51863216867123
C           -8.79158682755000       -1.48783629403375       -0.31991919757129
H           -9.06270777786660       -1.29062616083166       -1.36460117319669
C           -8.47709800384953       -2.97952035452120       -0.16374134808354
C           -9.99261175410739       -1.14696568622155        0.57422188583441
H           -8.15771509163002       -3.18578608312428        0.85573452831360
H           -9.36918339709481       -3.55928243307163       -0.38316633296060
H           -7.68176921311695       -3.26292902036246       -0.84835245838849
O           -9.67836071714584       -0.37581846691302        1.60857804103446
O          -11.10134706971427       -1.55492244762182        0.36639801621895
