42
 energy: -62.486133518024 gnorm: 0.000479375217 xtb: 6.7.1 (edcfbbe)
N           -1.36202939359330       -0.23164895551953       -0.65026590902682
H           -0.50177231930553       -0.76383831458413       -0.56401829982735
H           -1.58680806134994        0.14948570201904        0.26277957739646
H           -3.73668673158446       -0.18259842144784       -2.92493506751438
C           -2.44787548860879       -1.10607513124951       -1.07475447801778
H           -2.24311016166199       -1.38505200292417       -2.11902622298442
C           -2.59236496241759       -2.38289362194269       -0.23729592390378
C           -3.73472103180076       -0.30224013989515       -1.00810582881955
H           -2.81240402299736       -2.11304614655507        0.79149084273777
H           -3.41028682781172       -2.98906072169639       -0.61709698502340
H           -1.67316238494630       -2.96474134852631       -0.27447468379259
O           -4.26409656238043        0.11401357147218       -2.17244853949219
N           -4.19878462610447       -0.06611675694662        0.13624930266365
H           -7.31117526860770        0.42053767420438        1.92208785581240
C           -5.42405221281817        0.64327319168032        0.40142720085463
H           -5.34020183310807        0.94356674269072        1.45685904119063
C           -5.67931214122892        1.89154225587415       -0.46397991014604
C           -6.58481423250960       -0.31731448548685        0.26895994983441
H           -4.76041885426239        2.48198328621505       -0.47427069101185
H           -5.87721467751191        1.55505599595547       -1.48086557091554
C           -6.84392323650453        2.76798208706142        0.01112049831762
O           -7.55794684433513       -0.22499807616386        1.24847896575069
H           -7.73281155052664        2.14260037173062        0.15326703345212
C           -6.52723510209642        3.49289129966838        1.31889552959999
C           -7.17053471908122        3.79325846472145       -1.07401808059353
H           -5.66557391219191        4.14336731553334        1.18586942735110
H           -7.37312889507737        4.10541401679900        1.62334195098322
H           -6.30474716793657        2.80251634046833        2.13027550596310
H           -7.45608662483521        3.29450887874501       -1.99672456802449
H           -7.99330697610215        4.43169365125149       -0.76079526153894
H           -6.30478619174189        4.42052967717635       -1.27467562228016
N           -6.62788725795407       -1.10433199265065       -0.69874603436664
H           -8.97815227499893       -0.43066331446489        0.13972150845671
C           -7.63768153428869       -2.08591433126620       -0.99268907231054
H           -7.23922200510169       -2.66931663415608       -1.83109280482886
C           -7.95735956192708       -3.03297192337951        0.17193063561110
C           -8.94731302226525       -1.45205294881182       -1.48777735870355
H           -8.40398105960691       -2.49999367000877        1.00841466446206
H           -8.64699027399966       -3.80244624564724       -0.16606846959298
H           -7.03892304427260       -3.50500233439923        0.51396235531615
O           -9.50396114401678       -0.55710600448807       -0.67243800103825
O           -9.45334707138311       -1.75682258007463       -2.52963318116206
