42
 energy: -62.486133531205 gnorm: 0.000477936147 xtb: 6.7.1 (edcfbbe)
N           -0.84648877498553       -0.02777484721441       -1.02925645463022
H           -0.07795162306178       -0.49913097412976       -1.49089337033664
H           -0.55704998893771        0.17002922557037       -0.07538745227066
H           -2.12602426012163        1.38965188290157       -1.41716773761698
C           -2.04532902563211       -0.86382699210782       -1.02168839931314
H           -2.20588099661388       -1.20007807618538       -2.05532921842682
C           -1.96959572548930       -2.08386175125039       -0.10632773219140
C           -3.21900703925807        0.05202116815042       -0.68321494616880
H           -1.90150428636854       -1.77263275345435        0.93365740970388
H           -2.85734160411069       -2.69527317452889       -0.22908107602916
H           -1.09574617976649       -2.68316933000466       -0.35523202601448
O           -3.04216368109885        1.32130758282376       -1.08125682137590
N           -4.20656363353602       -0.43618781937622       -0.08319182878669
H           -5.14835162637057       -2.07171093168749        0.54752540017764
C           -5.46279570342053        0.19659518829779        0.26249639874636
H           -5.43932250822922        0.32903606316453        1.35501751628693
C           -5.82149626538582        1.52659538918750       -0.40389042898241
C           -6.48534024147730       -0.89343085474472       -0.02319402595278
H           -4.95089936409365        2.18061967497563       -0.38427511979045
H           -6.06754684676038        1.32449437468591       -1.44742202029073
C           -6.99173740598136        2.24814288057777        0.27773539383243
O           -6.09970950881545       -2.12684536807973        0.34415741496366
H           -7.76483497849342        1.51418042430549        0.52061747471534
C           -6.54111312910493        2.93127340752110        1.56792999483577
C           -7.58203507422728        3.28646197810478       -0.67462229656420
H           -5.78295168575374        3.68214874711904        1.35386064814160
H           -7.38323976412960        3.42383461101745        2.04854829224248
H           -6.12461331517859        2.21583120015077        2.27325092604401
H           -7.96280219505540        2.81646053896599       -1.57792656661837
H           -8.40137381679639        3.81849916019620       -0.19695324614751
H           -6.82239361826815        4.01199620209157       -0.95854203816224
N           -7.57121788427374       -0.63221348242608       -0.60178963415789
H           -8.57732675570920        0.50220302123330       -1.58441181086173
C           -8.53778879804331       -1.65992120589624       -0.91359471603668
H           -8.05952040565882       -2.56263241150564       -1.31513335145823
C           -9.36925235898762       -2.04779574345798        0.31382642276629
C           -9.48196967485142       -1.07932570712956       -1.97724442423703
H           -9.82018306016296       -1.16039941765677        0.75384321203192
H          -10.15559747403859       -2.73383397338534        0.01198356000117
H           -8.73344625592568       -2.52767610676631        1.05364508846920
O           -9.32186958211874        0.22415173367489       -2.16999667826283
O          -10.29481514520348       -1.73983939713636       -2.56213672987822
