42
 energy: -62.486133478928 gnorm: 0.000484505682 xtb: 6.7.1 (edcfbbe)
N           -1.09996252680861       -1.12370684631266        0.11719501399896
H           -0.21399064398684       -1.27039134796867       -0.35121604706726
H           -1.34359939689268       -1.99235874359141        0.58597308762696
H           -1.99928580496798        0.11015013124934        1.27893390148638
C           -2.14686743328502       -0.77603261369959       -0.84526411858858
H           -1.73719931743632       -0.00330741292255       -1.50798181567103
C           -2.65888794660659       -1.94330411818781       -1.68527995637158
C           -3.28343087983467       -0.12870484281966       -0.06788348044757
H           -3.00151343313065       -2.74661027509614       -1.03617505150226
H           -3.50204034566368       -1.60853278938308       -2.27926291522720
H           -1.87379056521647       -2.32228316171866       -2.33652356036775
O           -2.93783557356962        0.35246452745886        1.14692650109443
N           -4.42396782542435       -0.06286469709805       -0.58476265084126
H           -7.37027000639951        0.55642544758045        1.64751217681101
C           -5.52166114974727        0.57188726370570        0.09299500272970
H           -5.28195703952397        0.79729252835343        1.14572968814296
C           -5.83257590540591        1.87542383593865       -0.67477379276493
C           -6.71633978852151       -0.34777181007505        0.04318130650886
H           -4.91434744425997        2.46682466592967       -0.69606116926713
H           -6.06371950197743        1.58039339136311       -1.69947608203352
C           -6.96996058587431        2.73621221215219       -0.11562986738207
O           -7.66086871054163       -0.13490950157296        1.03998675737163
H           -7.87535646126936        2.12781409303077       -0.01595102140126
C           -6.61252104640472        3.34217420431868        1.24185708117972
C           -7.28192297598998        3.85693961675551       -1.10693814613300
H           -5.74695193795104        3.99366914384560        1.14193395496036
H           -7.44260391904559        3.93380239661448        1.62192108605809
H           -6.37228218407467        2.58365437416305        1.98475858677942
H           -7.58531291128373        3.44517968579926       -2.06598168297342
H           -8.08908862255821        4.48176005944983       -0.73168770059838
H           -6.40588051061620        4.48296269826547       -1.26174974596564
N           -6.80970672126272       -1.22350217731042       -0.83863436658474
H           -9.10118346520525       -0.35861361069311       -0.02873190128833
C           -7.87181300053380       -2.17529668143347       -1.02504137284607
H           -7.51886305681039       -2.85226409898416       -1.81157820191174
C           -8.22048404108601       -2.99680568267503        0.22446340673234
C           -9.15895164078547       -1.52342492192296       -1.55481955622327
H           -8.62073769366783       -2.36837565397884        1.01708293881639
H           -8.95803112128330       -3.75272640535428       -0.03368752817696
H           -7.32341681579175       -3.48914248602022        0.59295170591055
O           -9.65158836955022       -0.52877343438655       -0.81661338752566
O           -9.70542293083872       -1.89735301093663       -2.55276200798596
