42
 energy: -62.486133555332 gnorm: 0.000454205723 xtb: 6.7.1 (edcfbbe)
N           -1.32566329922862       -0.41434203753632       -1.83144438634776
H           -0.53898968248589       -0.99520373928783       -2.09373286412226
H           -0.95765413316893        0.48912772681468       -1.54605456690816
H           -3.03297433418649        0.13562224958093       -2.49384581596222
C           -2.08034834816503       -1.01349231234938       -0.73254049429955
H           -2.21568497305251       -2.07645309700804       -0.97246534489712
C           -1.41894327678808       -0.88519745146568        0.63830326672578
C           -3.46860018740659       -0.37966899896194       -0.74388137936137
H           -1.25395489677945        0.16400767578735        0.87552064200391
H           -2.06811609802904       -1.30719744255762        1.39790132638718
H           -0.46338287814841       -1.40561298711279        0.65013198723898
O           -3.80958814610108        0.19926800476681       -1.89931628852107
N           -4.18406883875646       -0.46577345113888        0.29124352364149
H           -5.12420149453990       -2.26487036154900        0.12199541610084
C           -5.53802177353561        0.05582596154271        0.35740076266101
H           -5.75078317855596        0.10820734981588        1.43575197031770
C           -5.76390902467171        1.44314233879657       -0.25814460642977
C           -6.48377869827874       -0.98722858413593       -0.20853543909941
H           -4.83901738850063        2.01622306185222       -0.16356216424942
H           -5.97745491398923        1.32580713013204       -1.32042774934874
C           -6.90239386242461        2.21452547802898        0.42185017682689
O           -6.03396000761755       -2.25685835666760       -0.21855255323910
H           -7.71494380426755        1.51334637337262        0.63218042137427
C           -6.43711466216498        2.83362256471447        1.73886814180772
C           -7.42503265676027        3.30694660224870       -0.50861180555424
H           -5.65960740348684        3.57313116116854        1.55647985460711
H           -7.26695326083104        3.32751288949534        2.23904872666081
H           -6.03789746964736        2.07830237782209        2.41173301325946
H           -7.80460334881633        2.88216462965584       -1.43470590427470
H           -8.23200236454823        3.85780838670444       -0.03123054846477
H           -6.62979003173500        4.00872325096140       -0.75257254398273
N           -7.63911792360481       -0.65411823660820       -0.57950335100991
H           -8.70087652196684        0.64387135993961       -1.28332014653892
C           -8.58113526008504       -1.61653910577802       -1.10296187933265
H           -8.09072716631403       -2.39375625135957       -1.70267725026118
C           -9.37344435177856       -2.28626042200359        0.02498938155580
C           -9.56561771029345       -0.84799598734270       -1.99732102918452
H           -9.83432983473891       -1.52857454617772        0.65550983472272
H          -10.14969255520471       -2.91271697750865       -0.40512718719121
H           -8.70950966919694       -2.89690061845007        0.63195675095445
O           -9.44928961962446        0.47111934076050       -1.90244977696723
O          -10.37301623958686       -1.39157075512933       -2.69894495780404
