42
 energy: -62.486133509424 gnorm: 0.000480199463 xtb: 6.7.1 (edcfbbe)
N           -1.45655739624171       -1.54858840501488        0.39098963827498
H           -0.87732494958607       -0.79018290387977        0.73633730061019
H           -0.84158081499952       -2.28229837286179        0.05871811037321
H           -3.07894449866146       -1.40907308434751        1.46616199146382
C           -2.33098441066146       -1.08214832290331       -0.68590089181268
H           -1.84990024361805       -0.37859052896034       -1.37853129863441
C           -2.86669184627688       -2.27640419078998       -1.47687751442541
C           -3.51336430502962       -0.38800212161011       -0.04248160917227
H           -3.32490136047845       -2.99534837572163       -0.80113182207302
H           -3.61624926899870       -1.93197217560569       -2.18231543088231
H           -2.06036994855477       -2.76649005631474       -2.01866923075741
O           -3.79658913395784       -0.79374034976108        1.21171532129179
N           -4.17279745797315        0.46154930323557       -0.69175929702145
H           -6.77667585988621        0.77229204541419        1.87769006683758
C           -5.35280545627677        1.04271694561767       -0.08883994363925
H           -5.08958698803022        1.49800062537036        0.87895045795371
C           -5.89292718353638        2.10268803058572       -1.06005067411041
C           -6.40187864750525       -0.02101542225978        0.13733471892847
H           -5.08959405904591        2.81393969711453       -1.25705487811643
H           -6.11330513167700        1.57955376379020       -1.99080605225563
C           -7.14112103171195        2.84750153174452       -0.57646626360597
O           -7.13493929477950        0.08347885546851        1.30539536313625
H           -7.89341866289199        2.11837124287809       -0.25511113393739
C           -6.82872888908274        3.78656584266484        0.58830653162398
C           -7.73471055439967        3.64665654115593       -1.73507437273996
H           -6.09970138223807        4.53353334380535        0.28128399800313
H           -7.73111378520692        4.30183317776548        0.91005139262572
H           -6.42428866121647        3.25303482678829        1.44615063785626
H           -8.01624673700679        2.98402813714538       -2.54928410354482
H           -8.62113048986726        4.18723695399174       -1.41138669662074
H           -7.00981802957110        4.36586624958658       -2.11006302231887
N           -6.57221496342265       -0.90567647466834       -0.72732158587955
H           -8.73384531342240       -0.35743206575204        0.57910773379992
C           -7.50360217766984       -2.00208975789567       -0.68390235856111
H           -7.23887131552484       -2.63936044834834       -1.53586745169853
C           -7.44300645926481       -2.83414965197051        0.60447768606919
C           -8.95372463266881       -1.54887594311761       -0.91235518659256
H           -7.76131104949100       -2.25575778121109        1.46895260673176
H           -8.08627952518719       -3.70489330301333        0.50469748057191
H           -6.42004976342807       -3.16482830733860        0.77001435545414
O           -9.41076475848759       -0.61988041506070       -0.07272204914814
O           -9.64427481266210       -2.01407431277601       -1.77342728897769
