42
 energy: -62.486133515200 gnorm: 0.000479774245 xtb: 6.7.1 (edcfbbe)
N           -2.09975529074462       -0.01479629543601        0.83713728744838
H           -1.39405416077781       -0.42047609330690        1.44259745963960
H           -2.70703471093053        0.57390295026129        1.39752880853775
H           -4.13455175700928       -1.62712358860580       -1.79491028871479
C           -2.90248849976445       -1.05975111111277        0.23041041156302
H           -2.33567750790178       -1.45203793209473       -0.62935654503002
C           -3.23297703922732       -2.22696237087531        1.17918951461721
C           -4.20292339228570       -0.46567014632946       -0.26028317182016
H           -3.76393114141390       -1.85024066789837        2.04987958426563
H           -3.85370559550595       -2.97298411370351        0.68939784964138
H           -2.31294861363269       -2.70703226644372        1.50697912660029
O           -4.70153215896914       -0.93839869075627       -1.42562556678215
N           -4.75943794057081        0.42168684218774        0.43553481255522
H           -8.15513133376227        1.32157240726822       -1.08664597320865
C           -6.01072389024136        1.02249832102342        0.04438895781948
H           -6.31689548653026        1.63158988644747        0.90756045080096
C           -5.83501802772086        1.93871150098130       -1.18891710981806
C           -7.10447763724860       -0.00491243585840       -0.17298659547425
H           -4.76543041617652        2.11917426406475       -1.31315515917081
H           -6.17043718992908        1.40651336646243       -2.08329003099705
C           -6.54158179882439        3.29787525726677       -1.07278082031518
O           -8.22583308492584        0.40103486755702       -0.80393734719852
H           -7.54672765085454        3.16762880024926       -0.64773303176745
C           -5.76183400003766        4.22957099337063       -0.14757215678090
C           -6.68605013879412        3.93012171061136       -2.45629297877043
H           -4.78493658849179        4.44803630492962       -0.57253051784705
H           -6.29634324704836        5.16713037395709       -0.01234603067255
H           -5.61269853666488        3.77518917954352        0.82866858121690
H           -7.28517885942584        3.30395548640917       -3.11489472832855
H           -7.16572696042313        4.90319975602296       -2.38179610566023
H           -5.70726141396421        4.06511538516243       -2.91071325903498
N           -6.96199285300135       -1.17324640538304        0.27114546556227
H           -6.12107599279617       -2.26961999226463        1.39446368624768
C           -7.97634394841642       -2.18927201185904        0.11360370876855
H           -8.97149614993558       -1.81422811228192        0.38548730680319
C           -8.02920843164420       -2.73309068332017       -1.31758819184441
C           -7.60858927650455       -3.33891759430730        1.06437078453127
H           -7.03680214853842       -3.05300354999207       -1.62808645206736
H           -8.70606586994540       -3.58195031430702       -1.35225518617548
H           -8.37920363828248       -1.96049320405037       -1.99666548643647
O           -6.45052899215318       -3.15518049062459        1.68760383214930
O           -8.29252943383245       -4.31323715067125        1.21242607621911
