42
 energy: -62.486133518854 gnorm: 0.000478451701 xtb: 6.7.1 (edcfbbe)
N           -1.20973384319546       -1.29179828117378        0.84676205391889
H           -0.92457546554479       -0.55592514025498        1.48454665255622
H           -0.37952425630293       -1.79950033833157        0.56521028431933
H           -3.00912657466525       -1.68388024726246        1.47771096768499
C           -1.89790958719976       -0.73243650451326       -0.31412900825024
H           -1.44600517331373        0.19062667650776       -0.70243489261042
C           -1.94839852817239       -1.77334976911821       -1.43531482217483
C           -3.32035781265006       -0.42243522504541        0.12058667301727
H           -2.42873652631803       -2.68481880542744       -1.08357234172898
H           -2.50037916008797       -1.37708277257111       -2.28321611996860
H           -0.94134171268641       -2.01965358607767       -1.76516227942468
O           -3.76785406616277       -1.15645769232408        1.15467349097012
N           -3.97701196813745        0.46786359318297       -0.48410633059063
H           -4.82900486699334       -1.42549841219974       -1.17200803275893
C           -5.36065378992456        0.73591478269855       -0.15310163572402
H           -5.44036024172998        1.02960710199995        0.90095021136896
C           -5.77166157355620        1.91361398508112       -1.05869919485281
C           -6.26404810997774       -0.46987052410788       -0.34707650290435
H           -5.01964854622717        2.68956418841564       -0.90317823517956
H           -5.68244391488207        1.57830514604153       -2.09421710809679
C           -7.16387014996410        2.50827914807966       -0.84270115446368
O           -5.75269883232371       -1.57325334159473       -0.92390001504826
H           -7.90927116715132        1.75004987893865       -1.09362720053372
C           -7.38124026855599        2.95620911241637        0.60001895756406
C           -7.35369502431312        3.69283195644460       -1.78981334122864
H           -6.62496100076865        3.68328444485868        0.88963883440315
H           -8.35921939489087        3.41991537437165        0.70315429249104
H           -7.33243952229198        2.11250609960999        1.28294787074094
H           -7.21101685011475        3.38775244981834       -2.82373862405406
H           -8.35732106880957        4.09815004870680       -1.68879082080563
H           -6.63989462196704        4.48220674255207       -1.56303146441820
N           -7.49461814187295       -0.35179051165599       -0.09655926774087
H           -8.96103581568894        0.61674640934496        0.47381250179752
C           -8.41558319980501       -1.43861625999222       -0.34478848845800
H           -8.27346475128732       -1.87104038802594       -1.34354153865108
C           -8.27881129136770       -2.55362941723968        0.69914555914166
C           -9.83682440752168       -0.86953022334508       -0.24427219346883
H           -8.38609542755138       -2.13992743559988        1.70004164894581
H           -9.05394351859848       -3.29692365933681        0.53505957544388
H           -7.30209227148872       -3.02249897109992        0.61284017492452
O           -9.89002602344346        0.33547857717941        0.31061432225906
O          -10.80929279174795       -1.47101404907217       -0.60779832940601
