42
 energy: -62.486133526509 gnorm: 0.000478536042 xtb: 6.7.1 (edcfbbe)
N           -2.60519235949694       -2.55150305419582        0.73712375887152
H           -2.91454830542590       -2.64010093222288        1.69986914461744
H           -1.67641719795593       -2.95202345197166        0.67207602367235
H           -4.30247086442263       -2.59662508490897       -0.19124844672102
C           -2.59373121955072       -1.14869972184557        0.32706271404663
H           -2.19584663144298       -0.46434625037552        1.08922076804557
C           -1.77913967753986       -0.99142312526755       -0.95747563601449
C           -4.03637136826634       -0.75541428521292        0.04105169342126
H           -2.16679160432876       -1.65145778014145       -1.73064428925101
H           -1.84124492949649        0.03619555278494       -1.30222801532758
H           -0.73531704605356       -1.24008571850819       -0.77713802817834
O           -4.82752266535482       -1.77920584444245       -0.31634504551269
N           -4.34545724795071        0.45876308934811        0.09954159238598
H           -6.61734274181240        0.20795703458670       -2.26467180830503
C           -5.66147261519113        1.01429318979533       -0.12156540391326
H           -5.90372149235275        1.51644571300460        0.82311951853328
C           -5.53353491339721        2.07491036745418       -1.22510755028258
C           -6.76437872126628        0.00096771044953       -0.36483255997076
H           -4.70503802943184        2.72549635509536       -0.93977168873976
H           -5.23575918836450        1.59165167770236       -2.16294051084841
C           -6.79270889899879        2.92283093379107       -1.44762471821706
O           -7.14311273601243       -0.28752791850175       -1.62453024672894
H           -7.65666319708297        2.26625872188381       -1.60195366342049
C           -7.08477621055488        3.81458107236053       -0.24331268856614
C           -6.60979519977128        3.78079765673955       -2.69955190394788
H           -6.22858894300067        4.44858704041681       -0.02379827575923
H           -7.94046853460773        4.45304467907192       -0.45007240535747
H           -7.31380587253259        3.22206772982044        0.63830239263962
H           -6.44221159234077        3.16219233718610       -3.57914928870080
H           -7.49353286650649        4.38878719324136       -2.87626657466669
H           -5.75594273413139        4.44417325139610       -2.57994759876533
N           -7.26374039703818       -0.56673966735822        0.64469202062134
H           -7.50444946524810       -0.63428294124909        2.42321368951105
C           -8.31029747973305       -1.55732659811823        0.53226953625024
H           -9.07985634027965       -1.25388830009530       -0.18869314389881
C           -7.76738788142953       -2.93139440447492        0.12488713832070
C           -8.94957791850016       -1.69192266612802        1.92154781023270
H           -7.00410581247833       -3.25053400425270        0.83094593615810
H           -8.58042655282116       -3.65174757563750        0.12589628667589
H           -7.32785624033577       -2.87350061442016       -0.86673573426943
O           -8.25695835984199       -1.08393014774912        2.87840362694664
O           -9.95862924927848       -2.30834689988552        2.12531659104992
