42
 energy: -62.486133509550 gnorm: 0.000479829903 xtb: 6.7.1 (edcfbbe)
N           -1.68739341148077       -0.84960643392419        1.53991603581062
H           -0.77829209006211       -1.27437374017436        1.39979753266568
H           -2.16748000674387       -1.39130487241303        2.25401202522545
H           -2.51029973017314        0.88717834640274        1.78322246588743
C           -2.46858831026036       -0.87551179064312        0.30250679403291
H           -1.82745807273600       -0.46677588261227       -0.49059255046095
C           -2.96657163896793       -2.25653487227998       -0.11409323828356
C           -3.61437874934600        0.10758420228080        0.48225204371387
H           -3.56494362999395       -2.69902669342168        0.67842393106155
H           -3.58636566744622       -2.16283349062936       -0.99855427833174
H           -2.12570124766435       -2.91249782687567       -0.33021932634645
O           -3.36698280478127        1.09964319457551        1.36234839461433
N           -4.67385347481771       -0.03621983541420       -0.17565078307157
H           -7.96124150616271        1.75669826636511        0.58879440860613
C           -5.75724237855719        0.91030984243719       -0.06491311390136
H           -5.61482311041980        1.60935475697202        0.77448269514887
C           -5.79338061997770        1.68232499743828       -1.40218914058754
C           -7.02541578262121        0.12497052684124        0.16938308872052
H           -4.80319138834230        2.12478721350472       -1.53622542418472
H           -5.92997236443837        0.93852893264396       -2.18945587941437
C           -6.84700700585376        2.78449096026295       -1.55334172074110
O           -8.14223211921716        0.81217920634756        0.50931947616083
H           -7.84808394562319        2.35585312790347       -1.43408150315901
C           -6.64725712438157        3.91327236771426       -0.54160732620606
C           -6.76404869405413        3.35375016794348       -2.97030855269974
H           -5.66538223968990        4.36248721408031       -0.67540058905255
H           -7.39829362876214        4.68698685409756       -0.68686250230770
H           -6.71642709779920        3.56804209880989        0.48857272232164
H           -6.93081005114113        2.57308989474439       -3.70841522253861
H           -7.51506439261129        4.12719486263490       -3.11372570077915
H           -5.78368673124852        3.79041243684411       -3.14780460005300
N           -6.98305519880085       -1.12821335053876        0.12037209865764
H           -5.93768191037325       -2.56193462218091        0.10507016113171
C           -8.10340551518228       -1.98839577997739        0.39477725422218
H           -8.68398593883606       -1.65316802355450        1.26413708621498
C           -9.03997142807151       -2.10631410121689       -0.81206400279327
C           -7.50962418081775       -3.37682675128023        0.69292900472488
H           -8.47179675847732       -2.39466443636199       -1.69401468339137
H           -9.79336644787107       -2.86235151774251       -0.60948602695713
H           -9.52570004285306       -1.15172409619313       -0.99882061463956
O           -6.21544056834472       -3.46200431970037        0.41731284676648
O           -8.16029429401116       -4.29088266798442        1.11913156854590
