42
 energy: -62.486133509840 gnorm: 0.000480372705 xtb: 6.7.1 (edcfbbe)
N           -1.49268621602380       -1.08180804587337       -0.73252727703733
H           -1.17623854691504       -0.42775588578313       -1.44042438936008
H           -1.26415975650215       -2.01931768879073       -1.04214319951891
H           -1.30203303020725       -0.11765741846711        0.83680396623510
C           -2.92819136487971       -0.94477768247314       -0.48525054912230
H           -3.48307334447785       -0.74439273642189       -1.41134381772891
C           -3.46237760501780       -2.22518769016896        0.15843082500926
C           -3.11999641273966        0.19946222914634        0.53598251447644
H           -2.87425236210854       -2.46375612741216        1.04198757297750
H           -4.49824118304601       -2.09365050194695        0.45936439827950
H           -3.40488894664568       -3.05813314984369       -0.54073556727356
O           -1.99690905018797        0.46798725649064        1.21105503928664
N           -4.15314990993854        0.80325622152050        0.90948469876534
H           -5.21197149851928        0.12192948225816       -1.87621880573870
C           -5.48463435904652        0.97761487548172        0.42468668506400
H           -6.07163807723023        1.19508484799906        1.32421283769996
C           -5.49100358419747        2.22771479385689       -0.48180411587258
C           -6.20269260415746       -0.16725339138706       -0.26412920177211
H           -5.07536082985269        3.04673371051680        0.10659066319537
H           -4.80663227115016        2.06629117450984       -1.32331359786376
C           -6.87200002720071        2.62699428033904       -1.01534133492300
O           -5.81998686649600       -0.53342853647661       -1.51091862153155
H           -7.28900080283031        1.79957576708581       -1.60151874554505
C           -7.84376573555907        2.94660533395294        0.11713712453265
C           -6.71967979651405        3.83799063863803       -1.93550968119493
H           -7.41978793218475        3.69691599705860        0.78035489409581
H           -8.77456062375736        3.33403567553682       -0.29017410058124
H           -8.07498535575764        2.05648093177356        0.69529386956470
H           -6.04324686998831        3.62182785939571       -2.76026530230163
H           -7.68311992844724        4.12123812854011       -2.35160308604983
H           -6.32328265792149        4.68495195918643       -1.38012619519875
N           -7.23467226160409       -0.63719122024411        0.28532071223862
H           -8.52095471008586       -0.57423631257530        1.59898245499230
C           -8.05067427744930       -1.64186158880642       -0.35665447464291
H           -8.20715866767413       -1.41852381240085       -1.42021909884931
C           -7.44066921220495       -3.04277428905753       -0.23423786847505
C           -9.41162894974603       -1.64668801289069        0.35555930632172
H           -7.21521866812663       -3.26138812352981        0.80789960543026
H           -8.15181516118909       -3.77522988662845       -0.60578888342001
H           -6.52537306925382       -3.10212150787219       -0.81806663968494
O           -9.41553893199190       -0.97108469178547        1.49831036642941
O          -10.36921981701396       -2.22559179930677       -0.07466281221799
