42
 energy: -62.486133516094 gnorm: 0.000479130070 xtb: 6.7.1 (edcfbbe)
N           -1.64206137002148       -1.83018553210508        1.00951667500301
H           -1.45847214959744       -1.37494823174467        1.89762268804218
H           -0.80244095366634       -2.32498427435069        0.73302561953946
H           -3.54381431288093       -2.15565022154692        1.15976838228964
C           -2.02851619985275       -0.85173767137457       -0.00418240788645
H           -1.46009562904244        0.08745082922853        0.04216432883774
C           -1.87140023026292       -1.45835981573580       -1.40003600845083
C           -3.49764018805076       -0.53246863172328        0.21898413238464
H           -2.45683322286372       -2.37216601733193       -1.48168917743050
H           -2.20808471362219       -0.74595864494404       -2.14777940809892
H           -0.82739977891164       -1.69602226342789       -1.59298203794324
O           -4.18797545959534       -1.47043474359077        0.88597238038025
N           -3.97129561050006        0.54189803739074       -0.23718571513593
H           -5.01080488521448       -0.84106906480156       -1.76810116546896
C           -5.38037136337634        0.85368730179296       -0.10576291007485
H           -5.58919909317294        1.14669940313184        0.92801133802980
C           -5.67559820533650        2.03188194341557       -1.05165680563818
C           -6.27841653266192       -0.31290303316042       -0.44661710765030
H           -4.94694770920803        2.81242303389870       -0.82796612569192
H           -5.49370436103755        1.69902315188520       -2.07704781900231
C           -7.09411064801290        2.59956211784496       -0.95150252885806
O           -5.87684281271206       -1.12573249833589       -1.44428757447634
H           -7.81032253647467        1.78535741084434       -1.10073014205731
C           -7.35878329602154        3.23313877187910        0.41163508740412
C           -7.30361751697116        3.63545547773190       -2.05530406378728
H           -6.64640338971943        4.03328855224284        0.60228287302308
H           -8.36169181340508        3.65166697096823        0.43939206255638
H           -7.28008075468006        2.49937576589721        1.20876030153031
H           -7.15519341564185        3.19198989072926       -3.03731267115433
H           -8.31338928140468        4.03564943676472       -2.01141325223613
H           -6.60219080560911        4.45935902921329       -1.94074965609601
N           -7.39668920538147       -0.41120929632050        0.12335484604030
H           -8.74363399796175        0.38540124756439        1.04295311081625
C           -8.33764530610121       -1.45226092598793       -0.22202459906242
H           -8.36912742556422       -1.63852177556078       -1.30351848609132
C           -8.00332893967135       -2.76321228907916        0.49736179601721
C           -9.72416334769758       -0.98318162865224        0.24168338661934
H           -7.93345457951383       -2.58937896672494        1.56910627648296
H           -8.78605422248204       -3.49084671717732        0.30217681123500
H           -7.05077131091613       -3.14595917464575        0.14002313236845
O           -9.68926352481338        0.11022849846751        0.99403307674647
O          -10.73836115201091       -1.55837128690565       -0.04104338564474
