42
 energy: -62.486133514497 gnorm: 0.000479819686 xtb: 6.7.1 (edcfbbe)
N           -0.75386848850309        0.01328054322901       -0.35171820503470
H            0.08699192480583       -0.28154752495995       -0.83319768029985
H           -0.63951842990092       -0.21581696813300        0.63176138534163
H           -1.94002208089041        1.55773478274530       -0.28677721048713
C           -1.93074609792706       -0.66791060583462       -0.88779196684287
H           -1.88976388594991       -0.56848048489556       -1.98089210940410
C           -2.03791828217939       -2.14772375058390       -0.52556227095128
C           -3.14708989784416        0.12756699220956       -0.43115605594591
H           -2.12506453978756       -2.26776496941795        0.55240572171770
H           -2.91492413418991       -2.57872529524034       -0.99679562674080
H           -1.15475483049822       -2.68257948152185       -0.86945599247017
O           -2.90601646172270        1.42700304796969       -0.20370163856161
N           -4.25137426390373       -0.45875109526749       -0.30549625947237
H           -5.10302035954945       -2.07709326224799        0.28367246991557
C           -5.49499615211310        0.18395957340798        0.07420274186643
H           -5.42890744367160        0.47383743373761        1.13327835513840
C           -5.87210328537442        1.41427845738976       -0.76066888849160
C           -6.53252119102783       -0.92096633719396       -0.03692820444915
H           -4.97594016004678        2.00976735254508       -0.93393392929666
H           -6.24077462264919        1.06313343480490       -1.72570692445505
C           -6.92958296986290        2.29977510186711       -0.08941376934474
O           -6.07702539363958       -2.14686894726210        0.26460757655839
H           -7.69378016451532        1.65422179202766        0.35242100171856
C           -6.30980685765706        3.15546305136034        1.01373182218199
C           -7.58915785433763        3.20093221708338       -1.13167030691683
H           -5.55959126170640        3.82441860406391        0.59699078468908
H           -7.07421643550124        3.75704272181330        1.50010024364783
H           -5.83190879275748        2.54059639381493        1.77257511614270
H           -8.07862121756446        2.61262439612474       -1.90375301545646
H           -8.33662713238900        3.83745537486746       -0.66435553822212
H           -6.84472067661780        3.83869876433246       -1.60419670780530
N           -7.70256284778460       -0.67801929152004       -0.43411654871887
H           -8.86012572659064        0.40891368815322       -1.30470478981412
C           -8.68395550258031       -1.72977400782401       -0.57454595404926
H           -8.25200855789575       -2.63193097865931       -1.02731809875644
C           -9.30720951938562       -2.10764847976634        0.77337258307877
C           -9.79118976359740       -1.19553755496845       -1.49438019638696
H           -9.70545547429695       -1.22001030174505        1.26104758720415
H          -10.11399881826526       -2.81640016316120        0.60971982931002
H           -8.55332480518310       -2.55760977462044        1.41452709307374
O           -9.68041687042407        0.10090113148469       -1.75853191356578
O          -10.67857193796779       -1.88247147667135       -1.91870953512204
