42
 energy: -62.486133508250 gnorm: 0.000480673107 xtb: 6.7.1 (edcfbbe)
N           -2.30051074093495       -1.15811371467072       -0.50057350791838
H           -2.09400077397880       -0.39450385619969       -1.13553279164789
H           -2.10066229850662       -2.02901762181640       -0.97898891228541
H           -2.07376447356896       -0.45744317331006        1.37361650289878
C           -3.69420430304432       -1.11511700832282       -0.05886570801902
H           -4.41109369543924       -1.01216153675247       -0.88711449336144
C           -3.99535006320702       -2.38869741780164        0.73241689736900
C           -3.80569004261686        0.07276972671258        0.90024424206077
H           -3.30650430221498       -2.47949164855263        1.56951279410734
H           -5.00907984442463       -2.35644125684580        1.11939148190227
H           -3.88052039212276       -3.26502839698657        0.09641749576016
O           -2.74574048047515        0.16529870686743        1.71181735476670
N           -4.71064919111893        0.93286711544415        1.04491996492272
H           -6.65635500797999        0.80421251891888       -2.08863429288077
C           -5.87936357501905        1.17149203758154        0.24897607164475
H           -6.59713526023531        1.60549842754442        0.96133851880399
C           -5.51811952331490        2.26093039339009       -0.78033788866812
C           -6.60036487946760       -0.02888233414262       -0.35106387628673
H           -4.77608158989448        2.90298897516078       -0.30223223009279
H           -5.01849962579374        1.80294823612039       -1.64196568436616
C           -6.70616718826069        3.13114312152377       -1.22573985331494
O           -6.92666233162463       -0.01900288687616       -1.66211062154108
H           -7.60655696809973        2.51335093737312       -1.33431252063365
C           -7.00466022963921        4.20293729778756       -0.17980343697832
C           -6.40206857989973        3.78743267281214       -2.57249088388251
H           -6.16365619223679        4.88653360671462       -0.08977225251592
H           -7.88447793451543        4.77530318586818       -0.46405785069320
H           -7.18734614517099        3.75686472826520        0.79424244770706
H           -6.24603960255825        3.04514694008557       -3.35415413134214
H           -7.22641744655771        4.42767555081254       -2.87630242280935
H           -5.50524197101264        4.39852901831833       -2.49831051794878
N           -6.93166293318418       -0.97470147076696        0.41354592753356
H           -7.12269001728809       -1.58539395576527        2.11824074075491
C           -7.74307872304510       -2.08903935939796       -0.02762354430115
H           -8.70123784853360       -1.71131281715151       -0.41248378445984
C           -7.12232843294518       -2.97985777921932       -1.10670944557985
C           -8.05622241488144       -2.93645898779166        1.21798811232159
H           -6.15389059671036       -3.35037233445629       -0.78259939006969
H           -7.78208275752506       -3.82710319157157       -1.27194598820700
H           -7.00490382617288       -2.42756511367572       -2.03487541141106
O           -7.58662039001611       -2.42378669893366        2.34895406670423
O           -8.66848868309411       -3.96644066353305        1.16592850695854
