42
 energy: -62.486132235303 gnorm: 0.000634540145 xtb: 6.7.1 (edcfbbe)
N           -2.14205590704804       -2.43773577214633       -0.86399305594957
H           -1.17013065462793       -2.71209711964733       -0.94264810125544
H           -2.56383137968794       -2.53397073015716       -1.78410400506518
H           -3.71721198600536       -2.71368816099991        0.17649187019200
C           -2.25812992231320       -1.05086068197888       -0.41587951306638
H           -1.62135437839521       -0.94218506851978        0.47164891247648
C           -1.85243642276516       -0.01264400922731       -1.45900890991155
C           -3.70441242779962       -0.84675986360399        0.03943609935597
H           -2.46295852572781       -0.12539608929638       -2.35238030790019
H           -2.01538817091774        0.98122054425942       -1.05764537727746
H           -0.80380411419279       -0.12890591335116       -1.72681890006764
O           -4.31560145939542       -1.97729404562346        0.41926868955490
N           -4.12809731829889        0.33081984720342        0.12264340809251
H           -7.39041163783891        0.91065100137010        1.84851019381681
C           -5.45346471675011        0.80986366871120        0.38623908655848
H           -5.39715223586761        1.33048351723840        1.35445724258382
C           -5.74847940163907        1.84439007562918       -0.72536046018173
C           -6.59323929106538       -0.18049271862202        0.43206708798512
H           -4.86945101189895        2.48463709564636       -0.80973673581493
H           -5.84650651614685        1.28381052448983       -1.65638358278461
C           -6.99677045724487        2.70748986560918       -0.51599231197474
O           -7.59881079752277        0.11431517194227        1.34595718756104
H           -7.85964303661148        2.06102520326611       -0.32110330931019
C           -6.82694187853058        3.68437738238025        0.64717877396138
C           -7.28705699656656        3.48721584675107       -1.79782378158496
H           -5.99816794790294        4.36031129187686        0.44819414129331
H           -7.72926234176505        4.27826468257231        0.77531865067309
H           -6.62498088345059        3.17554126128695        1.58785116890808
H           -7.46740190413534        2.80704320331509       -2.62633231099491
H           -8.16738281090500        4.11307300932052       -1.67171264249576
H           -6.44396317696073        4.12574540521151       -2.05243129229330
N           -6.59728043140624       -1.17847710718823       -0.31531268479646
H           -8.98211641954602       -0.39692961908396        0.31691901688124
C           -7.58148336698739       -2.22478744257916       -0.38614472114441
H           -7.15241541243798       -2.97895081572172       -1.05613454701283
C           -7.89585695644673       -2.87832317284654        0.96601850726629
C           -8.89238262727635       -1.75786734209791       -1.03449479628865
H           -8.39347283331670       -2.18368723723261        1.63938970140162
H           -8.53672611414759       -3.74292379310666        0.81212650858588
H           -6.96420940206131       -3.19932915791487        1.42604217354058
O           -9.48975679817736       -0.71724406969188       -0.45369636340045
O           -9.36599121178470       -2.30175456618474       -1.99168584814546
