42
 energy: -62.486133518851 gnorm: 0.000479254719 xtb: 6.7.1 (edcfbbe)
N           -0.73109901666720       -0.12349561962607        0.00391774344182
H            0.14956732747087       -0.31235826428418       -0.45913548941905
H           -0.72115550427703       -0.61563218588211        0.89305046898234
H           -1.88640911918995        1.39335469389781        0.39481194715708
C           -1.85881391014603       -0.58048152836470       -0.80566456900382
H           -1.69963072733994       -0.20087223642426       -1.82386215087766
C           -2.03714609904944       -2.09678250568007       -0.86036872317238
C           -3.09796927439778        0.12558664031880       -0.27333161571014
H           -2.24453405780981       -2.48922729366824        0.13307343721034
H           -2.86572751040261       -2.34744694463800       -1.51431743445908
H           -1.13339224712835       -2.56688481563789       -1.24318075037773
O           -2.85810421225381        1.29388633632856        0.33772683910681
N           -4.22953723500644       -0.40012495440009       -0.43153213920708
H           -5.09431478119712       -1.99223103254063       -0.42580718929388
C           -5.46880229986835        0.22663778965982       -0.00903901438186
H           -5.42823467650099        0.46896475930164        1.06110236646181
C           -5.67865727011364        1.52404138598439       -0.81191289847312
C           -6.53984786856596       -0.83335684022281       -0.22387906213706
H           -4.83695045075020        2.17561545192199       -0.56761776901824
H           -5.60844496566485        1.26853504746318       -1.87218607516862
C           -6.97570265840893        2.30254636636319       -0.57760030765319
O           -6.06868471354831       -2.08182956447872       -0.35228394974825
H           -7.79614307726315        1.75434527611225       -1.04358310492945
C           -7.28006222342910        2.49003745544602        0.90534993468207
C           -6.86391084377903        3.66278971589794       -1.26635547689241
H           -6.44388816572647        2.97308164629396        1.40734843009799
H           -8.16042445873165        3.11633403261614        1.02913256486706
H           -7.47205299929712        1.53336014278135        1.38360155773693
H           -6.62980551552611        3.54195977200593       -2.32146847979586
H           -7.80284106388552        4.20458993098026       -1.18512841800272
H           -6.08047681621282        4.26213943961525       -0.80650780951668
N           -7.76166172079232       -0.53534682800375       -0.32242554042582
H           -9.21433905904055        0.62454214801159       -0.16065621678577
C           -8.75168794889359       -1.56825250636215       -0.54881257459020
H           -8.47334973034587       -2.21455608406908       -1.39029733016253
C           -8.97173411219836       -2.44405636800933        0.69194790781975
C          -10.08147367430302       -0.87391825726362       -0.86187299379962
H           -9.22449631128283       -1.82101068134191        1.54816043560561
H           -9.78715523126485       -3.13674443591091        0.50323425282487
H           -8.06687967856219       -3.00359085048126        0.91367031727178
O          -10.11433303952322        0.40030348464435       -0.48683083051073
O          -11.01588432016332       -1.43647759945599       -1.36153528523178
