42
 energy: -62.486133512868 gnorm: 0.000479465509 xtb: 6.7.1 (edcfbbe)
N           -1.42765393537550       -1.25114679496876        1.08714708601883
H           -0.44815107092536       -1.46698263878177        0.94538012345895
H           -1.87956727965273       -2.09142378468737        1.43821424142708
H           -2.55227849476678        0.08589981141419        1.89754116212257
C           -2.05999449692309       -0.83258751015693       -0.16266845554634
H           -1.39901721057168       -0.08960095389987       -0.62863958596715
C           -2.32185541166306       -1.96525628976372       -1.15410634366135
C           -3.34439582921227       -0.10552417701686        0.21061290035468
H           -3.00631143298559       -2.69197546315894       -0.72093117931257
H           -2.77175173177596       -1.56506632148902       -2.05631616355048
H           -1.39003522466993       -2.46493898317167       -1.41182464970029
O           -3.37308321749292        0.38592419844518        1.45727975130333
N           -4.26348530655374        0.01291855698936       -0.64066266365433
H           -5.64698672980536       -0.57101304796311       -2.26310523851368
C           -5.49902885743615        0.70018210468835       -0.31527435283531
H           -5.56833380874091        0.94805802301648        0.74857161196631
C           -5.61092355956351        1.97312646821937       -1.16828404317973
C           -6.59439641178480       -0.27776358785497       -0.66610853465030
H           -4.83906620113581        2.67050402881817       -0.83627779082873
H           -5.39450928873752        1.71505456117062       -2.20885942224029
C           -6.98482317675631        2.64781212379059       -1.09173412898321
O           -6.50275719876054       -0.82934099907223       -1.88766713690331
H           -7.74618226808070        1.92774027132871       -1.41203162207651
C           -7.31548486559248        3.09922685699726        0.32816790775852
C           -7.01628382693161        3.84173166505145       -2.04462749607113
H           -6.53525793428475        3.75485392430553        0.70928322442889
H           -8.25641642449891        3.64397993024156        0.33705757321615
H           -7.41375272934375        2.24673520865677        0.99394280751264
H           -6.80359887625095        3.53066607075034       -3.06512899692537
H           -7.99572541210004        4.31319914167075       -2.02887541463804
H           -6.27510433503510        4.58139570278888       -1.74893122501504
N           -7.47129126052187       -0.57508645750890        0.18711884705412
H           -8.37639772954060       -0.16483026919590        1.69846800227700
C           -8.52190529241376       -1.52752207786724       -0.10212571117933
H           -8.94256595747352       -1.38019464223218       -1.10470274752413
C           -8.02279883444374       -2.97159190285972        0.01629860305095
C           -9.63273770821664       -1.30834035632652        0.93586421271646
H           -7.55182552428103       -3.12190579310011        0.98579611310606
H           -8.86494362084956       -3.65097324241280       -0.08023895287934
H           -7.29808580580675       -3.17819822610112       -0.76723262077753
O           -9.28736131497234       -0.47712361845708        1.91148057537632
O          -10.70006566228061       -1.85264733031353        0.87706473922715
