42
 energy: -62.486133511776 gnorm: 0.000479730763 xtb: 6.7.1 (edcfbbe)
N           -1.00841738687764       -1.32430019487459        0.14404030698516
H           -0.55693818846920       -0.65319744964754        0.75662201251183
H           -0.28713985094259       -1.79285597563292       -0.39095734257754
H           -2.56280933692930       -1.86045592590565        1.09560588567024
C           -1.96294149580273       -0.65849694025846       -0.74209897892295
H           -1.62766251559324        0.32212110851654       -1.10380139962901
C           -2.27431905669033       -1.55462060409872       -1.94124585141234
C           -3.24994416616651       -0.46514274076548        0.04377411048921
H           -2.61388514350400       -2.53122797324389       -1.60259456095084
H           -3.05507957178451       -1.09827440273605       -2.54202520704146
H           -1.38676381531976       -1.68621540877875       -2.55650892419844
O           -3.39898344207371       -1.34678717633210        1.06362050158776
N           -4.02504662842490        0.45909305726967       -0.28499578264049
H           -5.15233672412418       -1.20530657191597        1.78373775524249
C           -5.33923005829249        0.74835698034550        0.25158525354406
H           -5.21100547341906        1.15430986163321        1.26854064718383
C           -5.94145688155154        1.82532091431120       -0.65698048737702
C           -6.23707284594241       -0.46857561216748        0.38021481692050
H           -5.18113320164722        2.59691334953127       -0.78541014248010
H           -6.11891050443025        1.36974040618582       -1.63072264483610
C           -7.23552425243178        2.45964471801187       -0.13913623311750
O           -6.04261231779608       -1.30812425489185        1.41156004078024
H           -7.93206244288742        1.66118443982241        0.13226891238628
C           -6.98590008752519        3.33120704878629        1.09027715807024
C           -7.86811945440429        3.29807731806079       -1.24864662188087
H           -6.25776235970061        4.10752643548032        0.86401378676983
H           -7.90997534828838        3.81075897788800        1.40511198416949
H           -6.61502493601879        2.74338089895962        1.92628154711861
H           -8.09752285945155        2.68244040233007       -2.11475683575111
H           -8.79100694353211        3.75665976597163       -0.90150446489121
H           -7.18859575817306        4.08911281131267       -1.55874575492589
N           -7.16395213832580       -0.63049427014048       -0.45899525541231
H           -7.93115376004275       -0.20781984322275       -2.03397126278391
C           -8.06395489548703       -1.75730578818295       -0.40067926452695
H           -7.54059908226190       -2.69372544122884       -0.16899336952385
C           -9.16923462860464       -1.53937436736658        0.63932991042441
C           -8.72273812733634       -1.87327551930305       -1.78318443342317
H           -9.68546472939063       -0.60145403167549        0.44284046287769
H           -9.88292065301032       -2.35637372878202        0.58280456923448
H           -8.73565710667149       -1.50479110232219        1.63571279942305
O           -8.52574134867665       -0.80583324565317       -2.54772404813404
O           -9.36959175014185       -2.82384582454933       -2.12532838753550
