42
 energy: -62.486133517665 gnorm: 0.000478435857 xtb: 6.7.1 (edcfbbe)
N           -1.94821616541851       -1.13872026954425        1.45417099195149
H           -1.01217539479655       -1.51661760970325        1.37242169784636
H           -2.48940883331850       -1.78498021654291        2.02252557091297
H           -2.89220409834193        0.47002327825975        1.88920909316162
C           -2.57390912700252       -1.00004370634905        0.13955685351680
H           -1.84661817763468       -0.50810211971963       -0.51897704945900
C           -3.02269052211759       -2.31518994123295       -0.49363626821374
C           -3.74693145286327       -0.04451688315754        0.30314719019465
H           -3.71695132748149       -2.82842579119343        0.16843281556685
H           -3.53339108828021       -2.10770766939701       -1.42745471452783
H           -2.16692016921961       -2.96059644068302       -0.68195111654827
O           -3.68280437146416        0.75050228394267        1.38501799738984
N           -4.67354990682461       -0.04634689578517       -0.54649414195085
H           -7.50932436299063        0.80773296774611       -2.22352543164117
C           -5.81142109542607        0.84163195832507       -0.39608977604107
H           -5.85482218861756        1.24589531755266        0.62486286415541
C           -5.70093880982231        1.99725686195084       -1.39542900530158
C           -7.02462377317133       -0.05277115758411       -0.58209409111004
H           -4.70748258584057        2.43518514745927       -1.27562717363891
H           -5.73755492613510        1.60029188756064       -2.41548799980070
C           -6.75706512184131        3.09481794981663       -1.18834591911624
O           -7.82447359867864        0.09561874450331       -1.65233828401364
H           -7.72742540130177        2.63611614098216       -0.96354534915244
C           -6.38038163444457        3.99295689083509       -0.01183820306242
C           -6.89908801777304        3.93411765986053       -2.45788087070821
H           -5.44555280406245        4.51075170686418       -0.21577673516718
H           -7.15465488928393        4.73715203050522        0.15920009908135
H           -6.25898608236003        3.41349513257721        0.89952675270013
H           -7.22386966662141        3.32740969176210       -3.30149313612748
H           -7.63034894032236        4.72489719523637       -2.30904893563821
H           -5.94681352329158        4.39347298515376       -2.71409213556445
N           -7.19993129390063       -0.94838822603701        0.28599950437305
H           -6.68227739493405       -1.68698110319604        1.80733384272215
C           -8.25981315401391       -1.92639869604714        0.22236467410901
H           -9.24348062364559       -1.44694345699939        0.14063597118582
C           -8.09103569787828       -2.91133365408012       -0.93950569200852
C           -8.20510299579039       -2.71643762101004        1.54133989035754
H           -7.09327454060478       -3.34455267641783       -0.91318133644362
H           -8.82797411949190       -3.70372750125148       -0.84364639478380
H           -8.22928727054980       -2.39924348907882       -1.88759432030553
O           -7.15362456198959       -2.41062170406300        2.29183289216841
O           -9.01979155377115       -3.54270481518867        1.84641055185448
