42
 energy: -62.486133514958 gnorm: 0.000479398131 xtb: 6.7.1 (edcfbbe)
N           -0.80493959973523       -0.34063904997698       -0.10149704717035
H           -0.00075979134704       -0.82290948358331       -0.48393138245735
H           -0.73495864019782       -0.38590774856793        0.91158445255615
H           -1.77549091286681        1.29813001502603       -0.29884173915428
C           -2.04996006063638       -0.97122180911959       -0.53763775478923
H           -1.97262802299684       -1.11853566734451       -1.62335239921707
C           -2.35802276800526       -2.30826008717065        0.13183019667970
C           -3.16971293166065        0.04204353024774       -0.31344997461899
H           -2.40218723750656       -2.18274311735667        1.21200250896387
H           -3.32319211623114       -2.67105740642186       -0.20626371017636
H           -1.59020456067652       -3.04037702193574       -0.10988166056434
O           -2.75412671073676        1.31850657781048       -0.25783357426058
N           -4.34600725655899       -0.38051222851779       -0.19848941024755
H           -5.54831804077105       -0.75216079574772       -2.10596248176660
C           -5.54007954246098        0.42051839109063       -0.04751120783988
H           -5.72033286613181        0.56448433999881        1.02217362116808
C           -5.53129258468773        1.78356006082321       -0.76502987493713
C           -6.65957793358303       -0.43186953962634       -0.60673314333807
H           -4.78091544203224        2.42041015194108       -0.29682110941998
H           -5.22697965271085        1.62558373991894       -1.80477125888152
C           -6.88560796113003        2.50145658748796       -0.74736850780093
O           -6.46101910390467       -0.92998720428781       -1.84083205587232
H           -7.64228964643869        1.84666775255784       -1.19321607416890
C           -7.32204254482512        2.84703692357297        0.67343728554956
C           -6.79156058681718        3.77290880753365       -1.58985734145264
H           -6.56421322810910        3.45394947584566        1.16514412505044
H           -8.25221891124524        3.40977241031602        0.65198433026636
H           -7.48749748874728        1.94759783099679        1.25971360111627
H           -6.50642329914853        3.54069034547068       -2.61378247856822
H           -7.75025647459513        4.28530025861889       -1.61098553221506
H           -6.04926182455417        4.44971321131692       -1.17173796290325
N           -7.68516750457484       -0.66528396787802        0.08529555156481
H           -8.79809475555889       -0.18454822129982        1.43569211780004
C           -8.77418775952770       -1.47127669463438       -0.42400446763409
H           -8.97538234506519       -1.26917233612312       -1.48340194331757
C           -8.48914190675946       -2.96698455672644       -0.25076125643257
C          -10.02522951405649       -1.11965413212814        0.39381691939075
H           -8.25131263249507       -3.18115113069268        0.78896538355678
H           -9.36807110513174       -3.53548865254271       -0.54094212054986
H           -7.64683488534633       -3.25713470134352       -0.87354534509150
O           -9.76576755313771       -0.37085255113822        1.45927918786213
O          -11.12492355439466       -1.50262813721132        0.10645855303534
