42
 energy: -62.486133505373 gnorm: 0.000480957195 xtb: 6.7.1 (edcfbbe)
N           -1.78343838609358       -1.13398294816841       -1.88546119089206
H           -1.13703846915466       -1.88879822483556       -2.07906702546829
H           -1.23971161056094       -0.28199471686698       -1.78159993428611
H           -3.44806343900625       -0.40394366852762       -2.52686032037528
C           -2.53766121324337       -1.39198883779834       -0.65974189461349
H           -2.91262401131987       -2.42265595056544       -0.72048808371071
C           -1.73392051766783       -1.22396744181597        0.62862775709659
C           -3.76775027402998       -0.48705712021345       -0.68185416636149
H           -1.33603954044834       -0.21306091773136        0.69206141590662
H           -2.38343482828290       -1.38862466278835        1.48144033629762
H           -0.90874544494151       -1.93313823806580        0.65873257740804
O           -4.11344106951269       -0.05692556682486       -1.89880906005575
N           -4.34605265346990       -0.24730443443213        0.40924329990565
H           -7.11100847938031       -0.40401089832455        2.18306930348040
C           -5.56189647637560        0.52482733154805        0.54359154460675
H           -5.58039454287031        0.82209979265758        1.60270532685648
C           -5.67202867335233        1.77563046943107       -0.33950852049207
C           -6.73042591907788       -0.39783555318819        0.27209730013583
H           -4.74379576559109        2.34439920602431       -0.25377251574910
H           -5.77917051122828        1.43839536783712       -1.36924370517080
C           -6.86327514501572        2.66622351682825        0.03213314812984
O           -7.49582052702672       -0.75116130069311        1.36916144305518
H           -7.74729195632684        2.03220242726309        0.16905006620529
C           -6.61086827294941        3.44913676472768        1.31987078641954
C           -7.15218666148804        3.63517310970684       -1.11258229606664
H           -5.75012764805704        4.10368289467905        1.19791801102466
H           -7.47497690431148        4.06326065464276        1.56362566061865
H           -6.41916980391548        2.78982489086567        2.16348629944467
H           -7.39319191814103        3.08917713053377       -2.02112408831202
H           -7.99380770659163        4.27818878878660       -0.86528106590134
H           -6.28428825387007        4.26262171089524       -1.30547720857800
N           -6.93009865443098       -0.80895763469875       -0.88957699464483
H           -9.09225050447209       -0.66782750440442        0.50376864068094
C           -7.94520371166647       -1.72474700782374       -1.33641518794427
H           -7.69090509260550       -1.95172657902417       -2.37832250756312
C           -8.01720238812808       -3.03452899329932       -0.53901155504507
C           -9.34197942834834       -1.08503544632460       -1.35622119736696
H           -8.33583481660575       -2.86106199702607        0.48655450404395
H           -8.72035902464205       -3.71128397739887       -1.01809014592110
H           -7.03364813650791       -3.49894415566436       -0.52092696675725
O           -9.75676281651082       -0.56167243677590       -0.20247567500486
O          -10.03030006905133       -1.07463361395377       -2.33629089550592
