42
 energy: -62.486133515862 gnorm: 0.000479445935 xtb: 6.7.1 (edcfbbe)
N           -1.88679967487662       -1.00219607528904       -2.22949009494083
H           -1.17739058785360       -1.66578228475942       -2.51417776317081
H           -1.48661372861075       -0.07132886038971       -2.30701214522828
H           -3.71888758386226       -0.58374141843859       -2.56909458948800
C           -2.31886081715560       -1.24634997997950       -0.85515207000646
H           -2.46270657639204       -2.32855567564594       -0.74324549266413
C           -1.34585787282274       -0.75346519638549        0.21415945965009
C           -3.69271215849914       -0.60394718853099       -0.69375511000616
H           -1.16639331488342        0.31291633136704        0.09166080989684
H           -1.77489361136215       -0.91628474319458        1.19691010767104
H           -0.39797942980523       -1.28282221459114        0.14043771447566
O           -4.32533271767944       -0.33399704280874       -1.84036342758848
N           -4.14291037952334       -0.41549314038086        0.46812894450233
H           -5.52856473302740       -2.10199835437532        1.39091742503757
C           -5.46046521740097        0.16568651563857        0.69607226176592
H           -5.52681328539341        0.28474183473824        1.78750972848905
C           -5.66709964850158        1.52385712214654        0.02161885473800
C           -6.47863799784276       -0.87130174924139        0.28065229068566
H           -4.77332987356814        2.12618397955698        0.20201798527000
H           -5.75621998783236        1.35979692267223       -1.05155094016541
C           -6.90101681114356        2.27861036223182        0.52923174520346
O           -6.33348742408192       -2.08676814258876        0.85536218903111
H           -7.73471371293896        1.57358015338858        0.59308387177850
C           -6.66068310017541        2.88520233857593        1.91038085821895
C           -7.27099833882012        3.38088255070789       -0.46197371323514
H           -5.83995212402418        3.59894291108733        1.87323903795448
H           -7.55121490307822        3.40734916765595        2.25284498514216
H           -6.41683081066713        2.12093963258979        2.64403691832417
H           -7.50621931572604        2.96273269321914       -1.43758146537536
H           -8.13858380733100        3.93379156131244       -0.10964310617685
H           -6.44445480895132        4.07943348065016       -0.57627229632356
N           -7.35593982590276       -0.60973339648698       -0.57921526847778
H           -7.88305499650388        0.45409442173914       -1.92220321160677
C           -8.30417359047308       -1.58860610344254       -1.05282524076985
H           -7.83700384315294       -2.56795280006062       -1.21812260156008
C           -9.47614276670356       -1.75714137586655       -0.08021175142744
C           -8.85051984708674       -1.06500488189946       -2.39133215064052
H           -9.92545041955602       -0.78880622185425        0.13146407976101
H          -10.22356913367037       -2.40547823714197       -0.52868424324813
H           -9.12543783087479       -2.19721079429292        0.85006869529162
O           -8.47978912768713        0.17968746712708       -2.66072883934093
O           -9.55848550746395       -1.71648918710736       -3.10822717340240
