42
 energy: -62.486133504449 gnorm: 0.000481661509 xtb: 6.7.1 (edcfbbe)
N           -1.49170289592772       -1.76359646713243        0.91397152969761
H           -1.36697206679014       -1.33900141611964        1.82718352943985
H           -0.60215105231267       -2.15552096932370        0.62867249497013
H           -3.37076464706165       -2.26859288754235        0.99829978837829
C           -1.95923026905248       -0.77491993760875       -0.05423832547092
H           -1.45757310703102        0.19969055038111        0.01992442571148
C           -1.78314695938532       -1.32055757701586       -1.47321057433608
C           -3.44389061147016       -0.56932434160466        0.19810014581850
H           -2.30246222107403       -2.27142034173645       -1.57881293099920
H           -2.18069067520095       -0.60997127720549       -2.19245697352104
H           -0.72836623597698       -1.47755269527133       -1.68829329581108
O           -4.06453110376877       -1.61691609975420        0.77165835024654
N           -3.97442496646376        0.52359971038160       -0.12825982116192
H           -4.97146926092628       -1.05061253133183       -1.55120533776639
C           -5.39249015133662        0.78505447689630       -0.02069639554558
H           -5.61053125722870        1.10822193283935        1.00258576119752
C           -5.69320392349534        1.94158834729819       -0.99587445424271
C           -6.28924249237266       -0.39082391931980       -0.33604462452370
H           -4.95169325033868        2.71686434125956       -0.79720460775638
H           -5.52450421845097        1.58008699778213       -2.01373804581115
C           -7.10014295315781        2.53630305105696       -0.90154532282353
O           -5.86496230672047       -1.27610973938254       -1.25957277278387
H           -7.83169615978322        1.73601637294743       -1.04819290337297
C           -7.35549694637947        3.18508684176313        0.45619683227307
C           -7.28547085099561        3.56840995446547       -2.01340004796095
H           -6.62017740162751        3.96372975742285        0.64881048970658
H           -8.34501754463544        3.63478690934151        0.47350993641516
H           -7.30585076106955        2.45357824694312        1.25782342479057
H           -7.13304800126571        3.11718671633025       -2.99120729497624
H           -8.29050717890277        3.98127629330668       -1.98181281923983
H           -6.57496341676698        4.38426263377557       -1.89689963609472
N           -7.46338004054156       -0.39318335890531        0.12276017356153
H           -8.85381245677278        0.48816152571962        0.90544887558808
C           -8.41100588997837       -1.42216837968907       -0.24186798670685
H           -8.37028098637288       -1.65530668268734       -1.31401953559759
C           -8.17050277319839       -2.71014412459741        0.55310946698573
C           -9.81170036564653       -0.89429408033216        0.09674962777691
H           -8.18121375495162       -2.49448563209021        1.61956571538727
H           -8.95493909006010       -3.42611401471451        0.32487579876790
H           -7.20366505221289       -3.13050067216558        0.28809702165663
O           -9.79960438820024        0.23267608232076        0.79922992660777
O          -10.81971157240612       -1.45748944410289       -0.22908435072016
