42
 energy: -62.486133512372 gnorm: 0.000479906450 xtb: 6.7.1 (edcfbbe)
N           -2.23007453518369       -2.09771778500149        1.21636058307553
H           -2.23700815234624       -1.74803592161867        2.16892470526397
H           -1.34869820376632       -2.57363378038271        1.06493385735199
H           -4.11717503318821       -2.38459649971552        0.89804049449756
C           -2.40059152925236       -1.00361584543065        0.26332092548403
H           -1.82624174209026       -0.10045230190919        0.51109500942859
C           -2.00958842871122       -1.47584024017498       -1.13751149478997
C           -3.88021967936248       -0.64248317677294        0.25715981921250
H           -2.58498024721418       -2.35843729337252       -1.40915168233340
H           -2.20697362422001       -0.68614105992768       -1.85624605451384
H           -0.95104970251784       -1.72482881375606       -1.17167204417504
O           -4.69434385174602       -1.64703344518676        0.60904180999203
N           -4.20436079840965        0.51818162608808       -0.09333279388703
H           -6.10464868799646        0.08933843798074       -2.34792745013318
C           -5.55422929292830        1.03451811888232       -0.17492090358646
H           -5.79805218047463        1.42062528477773        0.82247681414152
C           -5.53991013205070        2.20004714893152       -1.17473783536793
C           -6.60585288015828       -0.00340316930548       -0.50183845901212
H           -4.83180046060517        2.93810132283000       -0.79572280750980
H           -5.14078828146621        1.85296113012717       -2.13354827101781
C           -6.90633456139453        2.86069489303969       -1.39307518024645
O           -6.72800695316760       -0.39198359148456       -1.78939896221591
H           -7.61360763403171        2.11391220868186       -1.77204372059155
C           -7.46955158010843        3.43192506682388       -0.09391698066433
C           -6.77134446782238        3.96673440072673       -2.43898961263700
H           -6.75320176570737        4.10951887100864        0.36556780075647
H           -8.38375888854928        3.98528687572705       -0.29561666689741
H           -7.70563071783585        2.63964025593751        0.61153690643071
H           -6.38671231092604        3.57212428268127       -3.37723622468343
H           -7.73729297514526        4.42609573583474       -2.63360342120522
H           -6.08976887653106        4.73775934776446       -2.08646947170861
N           -7.28217698825953       -0.50090850894063        0.43535989223390
H           -7.67559497003308       -0.59728089255029        2.18462371698783
C           -8.28603862079888       -1.51778766666644        0.21886749047802
H           -9.00231772463794       -1.21073389401327       -0.55393152573398
C           -7.68675162629457       -2.87261736543820       -0.17339406798385
C           -9.03674239591170       -1.69169191135873        1.54777487655838
H           -6.92562761075254       -3.15806289650617        0.54899312315922
H           -8.47437702510008       -3.62087740981277       -0.18445992540807
H           -7.23261515129216       -2.80681132703291       -1.15820037153851
O           -8.45467541211265       -1.06941262875707        2.56571263153079
O          -10.03747551194701       -2.34510346210953        1.65609072251812
