42
 energy: -62.486143125486 gnorm: 0.000732949741 xtb: 6.7.1 (edcfbbe)
N           -2.73834980082597       -1.86751621432096        1.83249537088903
H           -1.86160922299885       -2.36342210749945        1.94051427280166
H           -3.47866414809159       -2.56450844137448        1.78541106519236
H           -3.75896243157154       -0.37810745541573        2.54378691038504
C           -2.73712290118709       -1.07476575520263        0.60362060066646
H           -1.84237400951545       -0.43684120461763        0.63108787039563
C           -2.73447458001363       -1.88791119157829       -0.68866518079268
C           -3.93727609053022       -0.14831622993433        0.69096997617860
H           -3.53478275875505       -2.62304050076740       -0.67001496673996
H           -2.89335914751200       -1.22446942220679       -1.53114701548425
H           -1.78517594180180       -2.40604781066952       -0.80719241469938
O           -4.30485178854912        0.17136499804057        1.94562685133994
N           -4.51553211978671        0.25907805036855       -0.34980693288550
H           -7.96484008025611        1.84241508063000        0.28627305773533
C           -5.66952574102814        1.12278297768345       -0.22894892804980
H           -5.55358213685613        1.82859993380575        0.60789324043811
C           -5.77231304367074        1.87316802380953       -1.57099486479540
C           -6.88405485284606        0.26720721268060        0.06233109783897
H           -4.79074334960811        2.31886628597085       -1.74517586837191
H           -5.92475495628038        1.11895470448008       -2.34492720568238
C           -6.83858130124061        2.96564349197205       -1.70617039005006
O           -8.06264795171370        0.88247063326531        0.29613554328625
H           -7.83735423533292        2.52199200355926       -1.62219519381843
C           -6.67686391597538        4.06639228847243       -0.65715520105783
C           -6.73840309087517        3.57947705101398       -3.10349039055338
H           -5.68964973115866        4.51598181476209       -0.74006668637182
H           -7.41969847016286        4.84607812845259       -0.81251349087542
H           -6.79046755459982        3.69566232995694        0.36033662216993
H           -6.86403221857751        2.81655541263855       -3.86775606339341
H           -7.50818099851743        4.33498753363241       -3.24338207030180
H           -5.76733091973957        4.04881188267238       -3.24352713933560
N           -6.73358179158302       -0.97643818306987        0.16071946913085
H           -5.56800531742296       -2.22748655649871        0.39649731042114
C           -7.76620350235727       -1.90171406100501        0.54539949116659
H           -8.40222528652061       -1.50483156581961        1.34727017655545
C           -8.64909679493355       -2.30151700556202       -0.64031514214754
C           -7.03094032366720       -3.15060562342622        1.06399817807620
H           -8.02937570031220       -2.65555929562370       -1.46149734367830
H           -9.32435377795719       -3.09536704663472       -0.33376315376646
H           -9.22674410025873       -1.44407860540599       -0.97647123835386
O           -5.71966646032779       -3.10535454684479        0.84255583571905
O           -7.58043872403749       -4.07061670251522        1.60118885237142
