42
 energy: -62.486133509327 gnorm: 0.000479966619 xtb: 6.7.1 (edcfbbe)
N           -1.11442941449534       -1.07748924903648        0.87320165051453
H           -0.12575951327308       -1.18241565319567        0.68130090308964
H           -1.46466612739294       -1.98090558376709        1.18023495048762
H           -2.31681580814778        0.11475493074332        1.81200232205021
C           -1.83890867900240       -0.64068347940531       -0.31843584467309
H           -1.27946685537069        0.20042186157357       -0.74903768926723
C           -2.02419010135694       -1.71804373624167       -1.38648687272640
C           -3.17216105789990       -0.07924069959153        0.15562219643166
H           -2.60476391411772       -2.54847664902853       -0.98857474831178
H           -2.54930751833699       -1.30138437892779       -2.23971273271672
H           -1.05653858813828       -2.09153798635611       -1.71580278296162
O           -3.18543392462247        0.34581594419313        1.42580425077383
N           -4.14080257549637       -0.01001426106286       -0.64595264739682
H           -5.09592953032396       -1.37583502236033       -1.54362997440972
C           -5.43155355410801        0.50273459792401       -0.23170829549863
H           -5.45873774614989        0.75498813862506        0.83332587121380
C           -5.71969397388828        1.75786176417349       -1.07721746753527
C           -6.44230554184031       -0.59079796274927       -0.50955959074522
H           -4.92177143379901        2.47505645516139       -0.86984929535920
H           -5.64374802463136        1.47384160502294       -2.12969020180833
C           -7.07477611689423        2.42401299725786       -0.82913309640935
O           -6.02198427548013       -1.58407450401596       -1.30647259183261
H           -7.86450624521941        1.69909622430331       -1.04421532837221
C           -7.22261481101531        2.89523406739521        0.61507383910879
C           -7.23412815536313        3.60692979464111       -1.78352509496653
H           -6.42790366212164        3.59388891536647        0.86970597881031
H           -8.17729992654665        3.39817675842512        0.74739173280366
H           -7.18271714112714        2.05755222819954        1.30553968346688
H           -7.15345434816187        3.28318244210879       -2.81865691151044
H           -8.20644691130840        4.07307298559256       -1.64635716673163
H           -6.46566141290737        4.35443526781237       -1.59624568923676
N           -7.60905492465939       -0.49813619874546       -0.04105662457552
H           -8.93375865604831        0.50706252576420        0.70940936428255
C           -8.61815829122689       -1.49512032986317       -0.32340693567665
H           -8.61611329460028       -1.78892570702116       -1.38112426735788
C           -8.43442944612342       -2.75086610714372        0.53588896893124
C           -9.98103790360562       -0.87298768346752        0.01361884937878
H           -8.38664123581564       -2.47660956730872        1.58796645390201
H           -9.27689798371910       -3.41865130432781        0.37935572889341
H           -7.51360701147269       -3.25772253564312        0.25827369683697
O           -9.89358593330786        0.29318012896819        0.64149196748075
O          -11.02442969047586       -1.40340686711795       -0.25042155264202
