42
 energy: -62.486133501569 gnorm: 0.000481643281 xtb: 6.7.1 (edcfbbe)
N           -2.09896360997563       -0.22139075374927       -1.66844695236960
H           -2.14356637107265        0.77231197748931       -1.86999648542285
H           -2.03331049134898       -0.71559721586130       -2.55123296195263
H           -1.29918051549503       -0.39511104498463        0.14782660146448
C           -3.27866860422173       -0.65365817027251       -0.91898306127863
H           -4.22805513706038       -0.31825221512380       -1.36001332726785
C           -3.27064866813176       -2.18316425851349       -0.84581410135760
C           -3.10557132375584       -0.07121801410465        0.48981754130292
H           -2.35270668924963       -2.53428690099438       -0.37841172090027
H           -4.11779001432494       -2.55133946949409       -0.27531895112633
H           -3.32983660709309       -2.59926652235905       -1.84968249532688
O           -1.84696127649672       -0.15676767311756        0.92273525316823
N           -3.95486799645010        0.45455243402606        1.26297102858039
H           -4.96445025024390       -1.48974084139684        1.89548055510773
C           -5.35290214408722        0.65249825083252        0.94898232309463
H           -5.80146943028715        0.94832318098688        1.91049137676912
C           -5.58381810773210        1.79446899525823       -0.05187543232028
C           -6.02859543032653       -0.64045494662169        0.55349348510140
H           -4.81418007656562        2.54936260133009        0.12168784319197
H           -5.46153067640399        1.41098906186030       -1.06562643263267
C           -6.96867822621592        2.44270015982868        0.07490687745606
O           -5.66128687569884       -1.72897645543995        1.26567699302170
H           -7.70901675869847        1.64838233813709        0.20816819688696
C           -7.03287358505576        3.38427577014611        1.27530094870461
C           -7.29918209552533        3.21184205658232       -1.20338952314214
H           -6.33248403348580        4.20706134481499        1.14802752188387
H           -8.03300927756608        3.79891717598437        1.37614276627043
H           -6.78654870887089        2.86765247077362        2.19931951657701
H           -7.31091161705941        2.55146665698873       -2.06751095635139
H           -8.27661387830647        3.68061500434397       -1.12172187581359
H           -6.56048199233222        3.99213091281736       -1.37558653746614
N           -6.91264447510712       -0.65816183070858       -0.34053782184527
H           -7.68123960887752        0.13755695245033       -1.79660737535307
C           -7.59317137805615       -1.86763989980915       -0.74030426249536
H           -6.93669274516102       -2.74624915443140       -0.71617234341879
C           -8.81394273957380       -2.13432362063680        0.14710765851765
C           -8.08350197294125       -1.64554668935120       -2.17896808915795
H           -9.46551538745958       -1.26280031233559        0.15708875497580
H           -9.36348972780140       -2.98616590835980       -0.24330833009424
H           -8.49133671398700       -2.34739527291607        1.16334982203923
O           -8.06598540897153       -0.36927153334172       -2.54897101677033
O           -8.46050169072715       -2.53454701571534       -2.88901647703378
