42
 energy: -62.486133516775 gnorm: 0.000478609123 xtb: 6.7.1 (edcfbbe)
N           -1.43934841998828       -1.51316281123618        0.99773218545764
H           -1.18539293608251       -0.84598486618236        1.71905938818034
H           -0.60950989049194       -2.04188740784920        0.75655966741866
H           -3.31602995047131       -1.82706972248027        1.42929787789892
C           -1.97846942289493       -0.82661805956747       -0.17367724887906
H           -1.43516909792307        0.08906105186912       -0.44596526307623
C           -1.98478497564106       -1.77819924818401       -1.37238756409649
C           -3.41349172514073       -0.45338156566316        0.15401534231547
H           -2.57386807629231       -2.66514266775243       -1.14717634252900
H           -2.40532454774033       -1.27684981851044       -2.23952396864291
H           -0.96965124444057       -2.08795678435896       -1.61166117919399
O           -4.00229380365843       -1.22041326867528        1.08380405307988
N           -3.96467503886275        0.50579781541177       -0.45108547417578
H           -4.95323857996296       -1.03854946188749       -1.66282525125960
C           -5.35659169974190        0.82009577848470       -0.19167332727328
H           -5.48563778860509        1.10848213231945        0.85691197527858
C           -5.72915037200017        1.99593296401357       -1.11244599239192
C           -6.26250818034605       -0.36228359664188       -0.45796147374000
H           -4.98627042647503        2.77730417508869       -0.94379582354528
H           -5.62081511663180        1.66041917036338       -2.14680062964034
C           -7.13418077385428        2.56854797431620       -0.91222685477262
O           -5.83018695143387       -1.28816457886887       -1.33603918009109
H           -7.86342025705169        1.76438660117890       -1.04751707582386
C           -7.31601001650880        3.15963700153763        0.48334387375269
C           -7.39827403710767        3.64012662211091       -1.96927793713935
H           -6.58116918256833        3.94202023785880        0.66261997921972
H           -8.30870782378582        3.59245847466850        0.57827387857669
H           -7.20714210117150        2.39770048532374        1.25003215115277
H           -7.29958848633010        3.22871178236642       -2.97117220392134
H           -8.40454156342179        4.03690037067159       -1.86126263003374
H           -6.69195012064438        4.46107270323971       -1.86385212434563
N           -7.41411763505340       -0.37653874770090        0.05184051420892
H           -8.78338829278033        0.50362092918645        0.87290750685256
C           -8.35761649893854       -1.43228896418004       -0.23911868146304
H           -8.35901437533654       -1.69853319904941       -1.30422425662517
C           -8.06291673278962       -2.69065577354292        0.58432567263119
C           -9.75174667603541       -0.91557461584546        0.14376873555970
H           -8.01720176373474       -2.43855095979728        1.64178575975044
H           -8.85249581574366       -3.41921698996287        0.42338084440127
H           -7.10889173677654       -3.11421244053799        0.28087301635074
O           -9.72845443966315        0.22987936175274        0.81451926282374
O          -10.76295468296976       -1.50294589819164       -0.12444609470012
