42
 energy: -62.486133515445 gnorm: 0.000479028995 xtb: 6.7.1 (edcfbbe)
N           -1.25576024675839       -1.43189359638076        0.38115136078148
H           -0.32724936594036       -1.62545158720390        0.02615356711806
H           -1.65419412859065       -2.31542292337427        0.68849504727417
H           -2.19275058895665       -0.24265524407009        1.56292571652385
C           -2.10123012209835       -0.84811255004733       -0.66097440281065
H           -1.51925227131876       -0.05403495366205       -1.14637123224141
C           -2.58967292202143       -1.83491068514901       -1.71813921757912
C           -3.27359556262049       -0.16933071382684        0.03030528644563
H           -3.11229531307945       -2.66150838201301       -1.24136242081619
H           -3.28726763461697       -1.33169394170121       -2.37799223257736
H           -1.75367560324983       -2.22678283241943       -2.29393859572841
O           -3.07744330558823        0.10959046571272        1.33884772617617
N           -4.30642007208442        0.10272292045763       -0.62753908085956
H           -6.71870464891983        0.44398204801110        2.00927334189663
C           -5.42181704602948        0.78578441507711       -0.02158143264182
H           -5.14712439976621        1.22849313854019        0.94983892256611
C           -5.88307830811553        1.87583832198096       -1.00355739411083
C           -6.54452337276531       -0.20519598502234        0.17617841451105
H           -5.04560419018414        2.55318739453692       -1.17998469421352
H           -6.10926945255576        1.36209828145151       -1.93772046774880
C           -7.10570654196762        2.67352085242921       -0.53919408839308
O           -7.16273921736467       -0.17525021716948        1.41682061715526
H           -7.88769761820580        1.97542460686079       -0.22005165821232
C           -6.76820158836049        3.60681068697187        0.62281641013564
C           -7.65526183736264        3.48580642827455       -1.71006708227563
H           -6.01076552940166        4.32610472921704        0.31808509778219
H           -7.65408877376388        4.15522677355224        0.93517928335642
H           -6.38972634035530        3.06210721650173        1.48499384061346
H           -7.95147577302101        2.82800501515495       -2.52300416373033
H           -8.52483137328678        4.06046110298242       -1.40020307764531
H           -6.90011044261654        4.17555520582409       -2.08092155135468
N           -6.86199631990071       -0.97653303041968       -0.75136594273649
H           -8.84878187752597       -0.38525502894516        0.78781243738986
C           -7.89011803521202       -1.98241756012970       -0.74512296752923
H           -7.75578451430224       -2.53866338423079       -1.68007259846728
C           -7.82080309375617       -2.96089278254645        0.43567218127409
C           -9.30144009361964       -1.37580728252415       -0.79643019859700
H           -8.00681565346853       -2.45891861140085        1.38269982320007
H           -8.56148198331313       -3.74514522768263        0.29982941006721
H           -6.83129107646539       -3.41128660413636        0.47140452783395
O           -9.59564243930368       -0.50809313129911        0.17183709636102
O          -10.10050257819307       -1.67748899394299       -1.63579043125948
