42
 energy: -62.486133501974 gnorm: 0.000481253816 xtb: 6.7.1 (edcfbbe)
N           -1.56135500436239       -0.95337863256738       -0.03869976802179
H           -0.97363296859629       -1.77541483205777       -0.09906567210393
H           -1.18687325461876       -0.36242485211086        0.69848631648502
H           -2.31512969232558        0.32870789346625       -1.17050491085898
C           -2.94446185584313       -1.31776069174444        0.27325343474900
H           -3.20294200728246       -2.19014672600905       -0.33857450868441
C           -3.19228460846312       -1.64530896851475        1.74304538094765
C           -3.84108341183935       -0.17508883985687       -0.20804885582212
H           -2.91736937663634       -0.79667541777096        2.36676676161538
H           -4.24441012335710       -1.85814502981624        1.89484942063363
H           -2.60415290505233       -2.51013016432906        2.04308698171935
O           -3.23735916537556        0.65454416409782       -1.08477963458744
N           -5.01613922032579       -0.14023563367723        0.21841715062682
H           -8.15077699052034        1.34819902664528       -1.31389706629402
C           -6.08611231598204        0.76997082362870       -0.08005751234335
H           -6.31949764553671        1.24844386200179        0.88442466506060
C           -5.86821614003451        1.87248319168451       -1.13737584498202
C           -7.28856761655471       -0.10945044546184       -0.40015288154258
H           -4.80120601953492        2.07103425308966       -1.21353934343412
H           -6.18559508077654        1.50466067347009       -2.11815587384242
C           -6.57354737149127        3.19771470160391       -0.80099365117800
O           -8.32695893779349        0.42966504719046       -1.07321017495352
H           -7.57312030451913        3.00628540744648       -0.38650524481639
C           -5.78058985012552        3.97167145419193        0.25077771897660
C           -6.73023115815276        4.04421190093816       -2.06350037521845
H           -4.80364910485258        4.24482422209980       -0.14180313080876
H           -6.30579188854338        4.88206779031962        0.53100958447911
H           -5.63278075324406        3.37408590169201        1.14742005607130
H           -7.33861854863421        3.53461361920414       -2.80874518050929
H           -7.20512513742834        4.99418451074662       -1.82914322245246
H           -5.75545611608990        4.24754982108523       -2.50097622151104
N           -7.28000513035783       -1.29714618261636        0.00609458214690
H           -6.43431564590452       -2.51008061037435        0.95403653082769
C           -8.35123683438507       -2.23840644683242       -0.19474693362502
H           -9.31628127732504       -1.83268205853355        0.13519354035156
C           -8.47789110885390       -2.68980737708000       -1.65333805715265
C           -8.00633348503042       -3.46439567477042        0.67220397968473
H           -7.51309585593931       -3.03787082484276       -2.01696407890756
H           -9.19572043559271       -3.50298868156972       -1.71392969747722
H           -8.81399196302024       -1.86250056681242       -2.27292672777609
O           -6.80439136943484       -3.39084552861222        1.22582628990818
O           -8.74989362597063       -4.39606006595144        0.81367766989389
