42
 energy: -62.486133504496 gnorm: 0.000481044364 xtb: 6.7.1 (edcfbbe)
N           -1.40868275665223       -0.74135427907433        0.93334924858235
H           -0.48208375979838       -1.07718103942088        0.70123603598437
H           -1.73141796216132       -1.26888612432834        1.74000182129542
H           -2.37177678006578        0.88892417129271        1.23735787951743
C           -2.33237097058645       -0.93522554574327       -0.18409182199784
H           -1.82178196648909       -0.59500916473433       -1.09415273237952
C           -2.80570720355840       -2.37402919895277       -0.37795655940927
C           -3.50952643261922        0.00352826388850        0.03875908047944
H           -3.27961875625682       -2.73593933427162        0.53220025606115
H           -3.53776964122326       -2.40646137988107       -1.17740282479308
H           -1.96770819135960       -3.02280178139998       -0.62509941191832
O           -3.27242338394752        1.02539541003576        0.87861232206936
N           -4.59582147322654       -0.20737291490500       -0.55781517715905
H           -6.82238361147321        0.31114906592655       -2.51749322483885
C           -5.72332387895061        0.68736306364805       -0.36122943536825
H           -5.77959664420349        0.98359061357767        0.69399651956833
C           -5.58660589150144        1.94538482603431       -1.22796193296926
C           -6.94068802776507       -0.15671825616421       -0.66979354337706
H           -4.71127636322650        2.48910877090558       -0.86582953621921
H           -5.37052452870046        1.65633902502101       -2.26294258630257
C           -6.80551319607769        2.87618522639495       -1.18667599906907
O           -7.38177531658651       -0.22247818518768       -1.93953549823344
H           -7.69372432845002        2.33365408043465       -1.53022766524211
C           -7.07638446746214        3.38177186628071        0.22855470888993
C           -6.56927496829055        4.05558155186055       -2.12972497514504
H           -6.18141064663841        3.83620796183697        0.64789660942213
H           -7.86632826713000        4.12912112838850        0.21298680443176
H           -7.39345070297152        2.57117114995639        0.87945201426647
H           -6.38520482370044        3.71324940776580       -3.14622639862399
H           -7.43659863925423        4.71099622932606       -2.14343301634822
H           -5.70819092631377        4.63385738106312       -1.80164910061299
N           -7.42808070067814       -0.85130602459536        0.26106558059921
H           -7.60932408186077       -1.18269240242302        2.02177587538853
C           -8.52666206259907       -1.76576236785831        0.04407854041027
H           -9.31393558463377       -1.32229882126283       -0.57808447649458
C           -8.05283973644464       -3.06882395810344       -0.60968360826726
C           -9.11227005445196       -2.10239017939954        1.42351469488165
H           -7.23888329588045       -3.49818952426699       -0.02913747279093
H           -8.87861545872938       -3.77385050587437       -0.64509681720860
H           -7.70044287968355       -2.86977777318127       -1.61825893779818
O           -8.36275851364488       -1.67185183646812        2.43152423472379
O          -10.13343437771916       -2.71420442103746        1.57207559645354
