42
 energy: -62.486133486952 gnorm: 0.000489890824 xtb: 6.7.1 (edcfbbe)
N           -1.03050016687442       -0.58813650482195        0.71738980220891
H           -0.07639783081006       -0.75554255159366        0.42286841009206
H           -1.25121598283325       -1.26668947589372        1.44112417033624
H           -2.17805211494787        0.84288587321019        1.27698101423968
C           -1.96070786968240       -0.73568177150432       -0.40094236753758
H           -1.53028931539328       -0.20059584170868       -1.25740487199917
C           -2.24595724569703       -2.18226317887365       -0.80035713799509
C           -3.23754018633385        0.00073639712382       -0.01937049187544
H           -2.67761625241879       -2.72336957169117        0.03923095520452
H           -2.95497459828663       -2.20448577028449       -1.62073637090465
H           -1.32753651839860       -2.67864189823359       -1.10780376632784
O           -3.10162232195781        0.90708901528631        0.95829384110948
N           -4.31213787430977       -0.25289088481485       -0.62406940700085
H           -5.57278345406086       -0.88501453376777       -2.16672413386899
C           -5.53224137213306        0.45346832399152       -0.28541590602296
H           -5.59644759383068        0.64993710128748        0.78968109479831
C           -5.61447893990101        1.78161079838544       -1.05726458518636
C           -6.65724859074011       -0.46302108218934       -0.70152805769463
H           -4.77815890330271        2.40634248573932       -0.73658066497214
H           -5.48507446602548        1.57041263892520       -2.12296060030338
C           -6.93095531117045        2.53713327919407       -0.84986955752236
O           -6.48890266801560       -1.05793397690874       -1.89277725391306
H           -7.76066543403481        1.87651586757781       -1.12365426538073
C           -7.11364921553307        2.96822308717664        0.60274862170182
C           -6.96096132699161        3.75926566121429       -1.76655680824513
H           -6.26916067529383        3.57272785596208        0.92743431370788
H           -8.02024047756783        3.55935211125962        0.70542722509352
H           -7.19877941883995        2.10667173939663        1.25866197597224
H           -6.86048104231333        3.46539788148132       -2.80910069379539
H           -7.89993252812240        4.29497650701431       -1.65236600709229
H           -6.14667965984463        4.43767744336593       -1.51998685777735
N           -7.62931379286310       -0.66743203419384        0.07289579915330
H           -8.72368327636202        0.00997115191612        1.34925423145236
C           -8.71977614434847       -1.54428235569710       -0.29588073178763
H           -8.94691340008982       -1.49730681742487       -1.36828699713928
C           -8.40849081386114       -2.99613043169365        0.08286929256751
C           -9.95759893246063       -1.09108085540842        0.49211484272963
H           -8.13922470460958       -3.05420135887567        1.13553715169712
H           -9.28625212062595       -3.61065440901407       -0.09592816529793
H           -7.57900059665990       -3.36421707340399       -0.51592408218234
O           -9.68815498530653       -0.18282167705155        1.42256615176066
O          -11.05639313694916       -1.53002700679913        0.29534587639930
