42
 energy: -62.486133516405 gnorm: 0.000478953307 xtb: 6.7.1 (edcfbbe)
N           -1.64393684299456       -0.92825001832399       -2.05254783089054
H           -0.83942172501567       -1.51424705988865       -2.23895480953662
H           -1.34727350703996        0.03924414831988       -2.14780405590083
H           -3.50041060378123       -0.74959169625926       -2.55301486181579
C           -2.16278947656064       -1.15798825427890       -0.70582783760480
H           -2.23182249844502       -2.24545771009524       -0.56731676463452
C           -1.31905021767250       -0.55984418566991        0.41797975851324
C           -3.58677131169788       -0.61852259288056       -0.68076875437214
H           -1.21302970959979        0.51351835047737        0.27429220448326
H           -1.81100732348788       -0.72801896781780        1.36999375356078
H           -0.33081608087292       -1.01480112678841        0.43553857996876
O           -4.16998822196520       -0.50834672468744       -1.88066070455061
N           -4.12875401227225       -0.34329516728551        0.42540784115881
H           -5.16356803996269       -2.21288294357471        0.59674419321738
C           -5.49560319923203        0.14849553645283        0.47699647577085
H           -5.68759934538798        0.32016821307710        1.54609057254339
C           -5.70474289229454        1.46319841108175       -0.28846617903193
C           -6.45766756167767       -0.93482901525666        0.03124497994067
H           -4.77219409816758        2.03095700949183       -0.24542093988039
H           -5.90685639713536        1.22375910378003       -1.33243291942367
C           -6.84141214177261        2.32104706517064        0.27986448642615
O           -6.06079543425824       -2.20861380055114        0.23078354597005
H           -7.67216542598638        1.66074555290388        0.54393222258397
C           -6.39185025911147        3.07044608657987        1.53277366535410
C           -7.32023192674709        3.31675054338469       -0.77506550671112
H           -5.60029548704493        3.77615673768441        1.28784575370911
H           -7.22332158863551        3.62567825523106        1.96052515662101
H           -6.01609847647658        2.38632438411746        2.28966376873524
H           -7.69059047124911        2.80267165414651       -1.65837586445988
H           -8.12342667354197        3.93299092991708       -0.37846653363768
H           -6.50392126024563        3.97134417427242       -1.07444072590163
N           -7.58605712195975       -0.62688131532933       -0.43108284066584
H           -8.57575541597968        0.58608277662359       -1.33911307640108
C           -8.54631384260632       -1.62578104219164       -0.83986611414529
H           -8.06681182765780       -2.48123215475293       -1.33267451719456
C           -9.36500181175959       -2.13585294976129        0.35067656825842
C           -9.50106170624819       -0.95364543937933       -1.83873010060868
H           -9.81094929584419       -1.29719327210562        0.88163449388741
H          -10.15429187435981       -2.78871264728508       -0.01113027305980
H           -8.72294185924052       -2.68715989787205        1.03323568991770
O           -9.32782568336134        0.35844121671973       -1.93660169581100
O          -10.33176861078668       -1.55889798891161       -2.45752577127311
