42
 energy: -62.486133515721 gnorm: 0.000479555127 xtb: 6.7.1 (edcfbbe)
N           -0.76639295572157       -0.00395604347301       -0.04468873849838
H            0.11250733941831       -0.15392333436147       -0.52475807097685
H           -0.70320821953708       -0.46231179701368        0.86020063245694
H           -1.99410474815816        1.44201852487636        0.34940352147625
C           -1.88318707038596       -0.55816017699970       -0.80755355552215
H           -1.76234523935148       -0.22760854610832       -1.84757546446216
C           -1.98589568486416       -2.08226054989238       -0.77668992639429
C           -3.14980373338298        0.10805675658059       -0.28743938534856
H           -2.14435553890487       -2.42949885171751        0.24259014180150
H           -2.82035946690680       -2.40643838389623       -1.38955274942192
H           -1.07126345902422       -2.52845356486681       -1.16218712737559
O           -2.96061114064977        1.29426499281373        0.30545521236526
N           -4.26019256290477       -0.46117969927100       -0.44792877247359
H           -5.10908195042640       -2.13917999061728       -0.23142179763676
C           -5.51507819757964        0.11760811431795       -0.00792338765822
H           -5.47027308816484        0.29546956864311        1.07678002685218
C           -5.86883281408059        1.43583948582889       -0.71108205116598
C           -6.55379724552408       -0.96143341775658       -0.26038032877498
H           -4.95736237828170        2.02341189994882       -0.82786827770510
H           -6.24908448165677        1.19601681850287       -1.70515466842518
C           -6.90145879244510        2.27058878936214        0.05676600353219
O           -6.08380439210376       -2.21675472618120       -0.21687774444492
H           -7.66639120413574        1.59572455052911        0.45088207842480
C           -6.24950925391736        3.01028291585781        1.22330074868652
C           -7.56640381497672        3.27275560763944       -0.88483190325698
H           -5.51147053366949        3.72034894498212        0.85586522039213
H           -6.99882950880330        3.55652919360700        1.79146542341165
H           -5.74838106149167        2.32137459512727        1.89876874161685
H           -8.07897633225797        2.76460029322141       -1.69777307008969
H           -8.29536763980875        3.87315813981109       -0.34602555084894
H           -6.82147757396611        3.94164555822211       -1.31143825790234
N           -7.74658212416471       -0.65874000102614       -0.53026344493818
H           -8.91516224107163        0.54772910676069       -1.21231428267881
C           -8.73837460245098       -1.67485976621363       -0.79974134788745
H           -8.32494901215043       -2.50787636570326       -1.38337592106591
C           -9.33720030803175       -2.23079119605844        0.49653900523876
C           -9.85939984295187       -1.01019434847522       -1.61156484017416
H           -9.71232558110414       -1.41545044915126        1.11198877576905
H          -10.15682113147679       -2.90164416647535        0.25525617397448
H           -8.57573582856432       -2.77323498972435        1.05154061125876
O           -9.74493922456692        0.31031545897320       -1.69047643170363
O          -10.75990862146388       -1.62581481954196       -2.11098019667647
