42
 energy: -62.486135891747 gnorm: 0.000724795971 xtb: 6.7.1 (edcfbbe)
N           -0.91329780879235       -0.91837952245139        0.08866995029877
H           -0.44248168385811       -0.02904585123442        0.21998678850334
H           -0.22931531544847       -1.58515888376624       -0.24903849291506
H           -2.27023285455921       -0.91997884964409        1.41232276960503
C           -2.02086512942107       -0.78634655537754       -0.85882941314970
H           -1.82337273741069       -0.08305149058685       -1.67812685194376
C           -2.37533397915854       -2.15184919070784       -1.44933600238792
C           -3.21908772032494       -0.28416408369633       -0.07621884526660
H           -2.57612823822122       -2.86592661353145       -0.65312155474277
H           -3.26017470826198       -2.05751380298009       -2.07173747291076
H           -1.55442727960714       -2.52588018546599       -2.05733520950060
O           -3.16963174063291       -0.55848310263211        1.25386572403259
N           -4.16457345014672        0.28738214968080       -0.66838210692991
H           -5.04403677437505       -1.12958348006681        1.53743450757306
C           -5.34047045468395        0.74361701578921        0.05239838496432
H           -5.06761619106050        1.09468995001069        1.06003167636363
C           -5.97360358925595        1.87095646141194       -0.76350159372846
C           -6.24908464514139       -0.45734129020320        0.20195834973082
H           -5.21276914895087        2.63799526849287       -0.91903516449315
H           -6.23073477852180        1.45612629758498       -1.73745089189424
C           -7.21306007262693        2.49883103197865       -0.11839558887087
O           -5.90149809609569       -1.35754447158798        1.14335639622400
H           -7.87435137164792        1.69519495719809        0.21829722156799
C           -6.84242249965157        3.36583786247956        1.08354314341694
C           -7.95953051568705        3.33747113407306       -1.15427456645427
H           -6.16444692290158        4.16184836591583        0.78203097876178
H           -7.73369280435561        3.82039869735345        1.50999975880532
H           -6.36079219528312        2.77956447428781        1.86203242685462
H           -8.28035258576127        2.72115729755756       -1.99033615200263
H           -8.83989775631199        3.79637604830793       -0.71048087637364
H           -7.31684161955510        4.12815704386177       -1.53567994871260
N           -7.23307775641617       -0.60866535599361       -0.56705873307903
H           -8.12735086549380       -0.12081654186224       -2.04988101874059
C           -8.09433835622109       -1.76521732587456       -0.50201777830337
H           -7.52408084856357       -2.69756806935540       -0.40250659763154
C           -9.08762498876880       -1.66661376559570        0.66141529197132
C           -8.89183027285505       -1.80160250428242       -1.81503122874931
H           -9.63982040831190       -0.73067393386389        0.60023736486122
H           -9.78717572823865       -2.49593199937684        0.60753763943432
H           -8.55396246311161       -1.70348632996111        1.60787425782697
O           -8.76946358729197       -0.69353377629900       -2.53457909672786
O           -9.57334131132695       -2.73327289280657       -2.14170231315884
