42
 energy: -62.486133510720 gnorm: 0.000480258329 xtb: 6.7.1 (edcfbbe)
N           -1.73129448275382       -1.34878517689880        1.23142146582665
H           -0.77386003738096       -1.65701143745363        1.11366947981512
H           -2.25336284369131       -2.12098746500300        1.63686137130039
H           -2.76169231783127        0.10664914672879        1.94205390740133
C           -2.32319554356370       -0.97220987466968       -0.05116323345162
H           -1.60030540929082       -0.32800022561529       -0.56818301098925
C           -2.68737974344075       -2.14880430148073       -0.95415513750293
C           -3.54236915331634       -0.11245439259934        0.25398309366121
H           -3.39245795720218       -2.80411246949471       -0.44681098837848
H           -3.15739149987489       -1.77806335549160       -1.85834766939137
H           -1.79769437135449       -2.71810920637031       -1.21615332717046
O           -3.54851704167690        0.44957866974260        1.47200880701057
N           -4.43205324851162        0.03172213409721       -0.62329887949769
H           -6.42874699899108        0.11988228929813       -2.51740487143209
C           -5.60788828997036        0.84395745473493       -0.36501155663142
H           -5.66709862863458        1.13739553541829        0.68938457952511
C           -5.58118398977451        2.08910792277922       -1.25934783075605
C           -6.76098998862845       -0.08912616808955       -0.65678008153883
H           -4.78769872287479        2.74174319222676       -0.88900906906717
H           -5.29856712658618        1.79784539433354       -2.27638418649537
C           -6.90373307229148        2.86507998444639       -1.29059047903269
O           -7.05506770904789       -0.34051451587723       -1.94446461066709
H           -7.69757369446434        2.20882518011340       -1.66504636440698
C           -7.30334647541858        3.35060273459240        0.10058455916754
C           -6.77183239894613        4.05102683316157       -2.24527591049094
H           -6.50292335007525        3.94015672067369        0.54229926499621
H           -8.19274508919855        3.97320748469142        0.03712999730847
H           -7.52377819808320        2.51345840227138        0.75743675411809
H           -6.49926642431786        3.71888508843009       -3.24493639096937
H           -7.71246900030765        4.59216468730904       -2.31076228754549
H           -6.00579959689767        4.73760109342460       -1.89126337456854
N           -7.31317471604846       -0.68076489564657        0.30860936619793
H           -7.66906959340796       -0.78514794933275        2.07934286085404
C           -8.34906302873676       -1.67019021759239        0.10836554459304
H           -9.09208954792729       -1.34010529463087       -0.62826929965970
C           -7.76802098128758       -3.01458640753498       -0.34403319103411
C           -9.04854968026650       -1.87488364967173        1.46046411025133
H           -6.99357344042994       -3.33438875065133        0.35044508208551
H           -8.55946133386813       -3.75851445774219       -0.36279039142750
H           -7.33598898247819       -2.91731814383524       -1.33656145740269
O           -8.43422039409196       -1.27022101789142        2.47006310255065
O          -10.04069714881096       -2.53661639503818        1.59085526748821
