42
 energy: -62.486133505639 gnorm: 0.000481172745 xtb: 6.7.1 (edcfbbe)
N           -2.76467839732758       -1.68493539123535        1.86501016274487
H           -1.85403095327831       -2.10848089048335        1.99276589678488
H           -3.46378787922154       -2.41580080204029        1.98039170194499
H           -3.91188729168142       -0.30923735503746        2.43856177385150
C           -2.88675145321523       -1.09162935212928        0.53505541159270
H           -1.99404704465302       -0.47794579521056        0.36043850899092
C           -3.03734418559299       -2.10536065058081       -0.59851789880896
C           -4.08675779433380       -0.15829042594182        0.57842039462884
H           -3.89246445888767       -2.74951867137474       -0.40444028904909
H           -3.20611065048034       -1.57991978774831       -1.53212950595375
H           -2.14330589110581       -2.71992165591453       -0.68256449064193
O           -4.50205949554580        0.16761936821030        1.81633047958165
N           -4.62061613542045        0.23814904555922       -0.48967462506217
H           -7.94798308688979        1.08904564481752       -1.72720846122622
C           -5.82448245461290        1.04125262829208       -0.43120399385671
H           -5.87475262116042        1.60421273195426        0.51332685357871
C           -5.82911749889934        2.00985225089155       -1.61934696051935
C           -6.99231648246117        0.06237303214865       -0.41856087534679
H           -4.79590677074643        2.32374621754283       -1.77774022532745
H           -6.12511636331468        1.47303932534002       -2.52559594582038
C           -6.70123440556976        3.25798788561252       -1.40627570957124
O           -8.06744628612071        0.29332911769195       -1.19239255376103
H           -7.63690506844864        2.98001521080904       -0.90375989215922
C           -5.98244697677113        4.27089333097482       -0.51686172289057
C           -7.04434072975034        3.89778634443523       -2.75122148806663
H           -5.07549124612273        4.62278045805454       -1.00356515737553
H           -6.62282056305957        5.12820086568032       -0.32232770158575
H           -5.70835349827883        3.82784865494139        0.43735696454597
H           -7.60812178049810        3.21470280623468       -3.38438562586160
H           -7.64142910557089        4.79470780245236       -2.60460102967303
H           -6.13364554115251        4.17589628059273       -3.27687747899005
N           -6.88170638094422       -0.92934201983382        0.34603670125504
H           -5.86269735871045       -1.67263753403988        1.54853541552674
C           -7.81478837653977       -2.01544219478898        0.48946351912835
H           -8.74256176877818       -1.66948701802712        0.96524307612986
C           -8.16229605997449       -2.72708989126614       -0.81989491254395
C           -7.14269220052684       -3.01576238193338        1.45230964144254
H           -7.24858417471405       -2.98302686047543       -1.35302775591766
H           -8.70699180647732       -3.63891399143909       -0.59085911414527
H           -8.77212611063234       -2.08647629849835       -1.45048428102206
O           -5.98350319031667       -2.58166666293392        1.93514882676183
O           -7.61249170455009       -4.08457920700782        1.72805748613687
