42
 energy: -62.486133514372 gnorm: 0.000479757398 xtb: 6.7.1 (edcfbbe)
N           -1.44837924084352       -0.21463659444193        0.60084409870106
H           -0.69355703581990       -0.76301878456980        0.99962061714794
H           -2.09438453740754        0.02631097288826        1.34551117630831
H           -2.90356442045216       -0.22259544921291       -2.60949525860977
C           -2.15520301571311       -0.98882194350209       -0.40255335507342
H           -1.50853243336788       -1.03700615954282       -1.29259002906015
C           -2.50942623187751       -2.42118236110695        0.03487442831064
C           -3.44174604281702       -0.26810181367009       -0.74264297842333
H           -3.15667594620114       -2.37930841587608        0.90755204306610
H           -3.03051423961789       -2.95099340978644       -0.75970775418682
H           -1.60357030594934       -2.97086098229746        0.28327911923253
O           -3.67674271724229       -0.01310824539055       -2.07173876384205
N           -4.21990845018821        0.01411061750159        0.19475957649361
H           -5.56120499528704       -0.22889086136510       -2.17160545672805
C           -5.50100157639043        0.67714939325915        0.09514340577927
H           -5.80533816921830        0.84621483412123        1.13260942590783
C           -5.44880553749864        2.02040953060201       -0.65115437338389
C           -6.52571210157268       -0.25267456375271       -0.51924525231517
H           -4.73572167468587        2.66275196435060       -0.12916209810469
H           -5.06733122570254        1.86463033226113       -1.66316152100409
C           -6.80802093519035        2.72452105237101       -0.73923892756372
O           -6.37700943768123       -0.60712126051977       -1.80512234136175
H           -7.51897928257679        2.05700331996668       -1.23949114765308
C           -7.36288552175376        3.07171255994811        0.63957804530381
C           -6.66133694020420        3.99177260692348       -1.58065844484492
H           -6.63573629237186        3.64804077527271        1.20765975397419
H           -8.26681358401322        3.66719464733436        0.53737733232426
H           -7.61446746046507        2.17430366695424        1.19733930505456
H           -6.28825457737569        3.75792886674263       -2.57563163754211
H           -7.62120072277452        4.49102403625312       -1.68583563558796
H           -5.96641238329279        4.68180458797930       -1.10639622091487
N           -7.46872171893754       -0.66611100348943        0.20846852055309
H           -8.50584162814486       -0.49859284211315        1.69271334793100
C           -8.47991635575707       -1.56393254785131       -0.30502781287616
H           -8.80013231391960       -1.28679859300398       -1.31729220441546
C           -7.98156857510543       -3.01346839303273       -0.32304460129917
C           -9.68811226032397       -1.47942183976975        0.63851124825335
H           -7.61336945535389       -3.29087200279579        0.66284389162320
H           -8.80110635322040       -3.67185324649971       -0.59694117045037
H           -7.17536550414168       -3.11896535193909       -1.04486765729991
O           -9.43499608087122       -0.81907480316949        1.76240045620482
O          -10.74862397960193       -1.98149793320379        0.39045396607380
