42
 energy: -62.486133518141 gnorm: 0.000479621340 xtb: 6.7.1 (edcfbbe)
N           -0.86833130644810       -0.38767370315282       -0.32467055069433
H           -0.08123975191242       -0.74307851277534       -0.85423726492093
H           -0.78384723240176       -0.74602842978183        0.62289465375289
H           -1.83804391053718        1.28024514961367       -0.02300495161229
C           -2.13281832319966       -0.83408120547297       -0.91022132970001
H           -2.08191441463302       -0.62379808921823       -1.98667017034262
C           -2.45532394081218       -2.31130974775349       -0.70365362303312
C           -3.22972777335335        0.05993206832012       -0.35406000639053
H           -2.46029199966111       -2.54907792191508        0.35827010709685
H           -3.44219808811607       -2.51618602580195       -1.10405178999982
H           -1.71966938433884       -2.93754199970702       -1.20434880170316
O           -2.81253749950647        1.27693227028063        0.05203075093223
N           -4.41113397811459       -0.36111081746642       -0.30857101934193
H           -6.70012644149383       -0.14242767364185        2.17590841117846
C           -5.49808255509433        0.47665085191582        0.14304781875816
H           -5.25830419196107        0.91021088133842        1.12716488313155
C           -5.77624530670123        1.61143247821022       -0.85809006184703
C           -6.72046804566420       -0.40586057551257        0.24293581507770
H           -4.87507590773096        2.21992213169736       -0.94551997125361
H           -5.97517345767749        1.13406756108331       -1.81822377030226
C           -6.96260568684783        2.50274445206700       -0.47787518010430
O           -7.25613887210054       -0.56603025606097        1.51107107142719
H           -7.83655539914666        1.86896331284887       -0.29071061501447
C           -6.67679633778071        3.33437395429271        0.77137659948079
C           -7.29154254235101        3.42554054551802       -1.64971437913869
H           -5.78175512224444        3.93608805663060        0.62726512276713
H           -7.51060749470893        4.00193855543895        0.97628499945394
H           -6.53002322611932        2.70807396623683        1.64842645979573
H           -7.53979921852335        2.84355675024751       -2.53344945608506
H           -8.14105856501829        4.05988828128761       -1.40824419454651
H           -6.44044026308425        4.06253105961342       -1.88166924272003
N           -7.18369687964424       -0.93217904096086       -0.78913139095455
H           -8.99700670460585       -0.46958214900401        0.98760490814549
C           -8.31210359009206       -1.81964988671688       -0.88797583447951
H           -8.29452865285915       -2.19716074508692       -1.91686552305959
C           -8.27916989842946       -3.00797572478296        0.08288424243197
C           -9.64583583089195       -1.07649417570069       -0.71719719451899
H           -8.36933110267467       -2.68312193845139        1.11707725320633
H           -9.09724546061838       -3.68621240967564       -0.14683929528918
H           -7.33579825431868       -3.53678592670400       -0.03229951469087
O           -9.78584652160967       -0.39227835791627        0.41901410426297
O          -10.51775211952864       -1.11947279835631       -1.53702700513570
