42
 energy: -62.486133504397 gnorm: 0.000481164162 xtb: 6.7.1 (edcfbbe)
N           -1.71234570104393       -1.93460130532728        0.43367247243220
H           -1.22674752286823       -1.39726637795571        1.14473439544191
H           -1.03566270471442       -2.54219012515346       -0.01290109439396
H           -3.53667760511307       -2.04716648801327        1.12917926270507
C           -2.33497054258587       -1.04737137279871       -0.54823338941115
H           -1.70522062541661       -0.19898554985923       -0.84874605650573
C           -2.72925553033124       -1.84649880287955       -1.79142633510088
C           -3.61110150146638       -0.50794258385899        0.06639935215059
H           -3.36155343804845       -2.68529260349847       -1.50977513012911
H           -3.28211780316629       -1.20547348914142       -2.47039214551818
H           -1.84361856068565       -2.22589265667082       -2.29696677552289
O           -4.16040085910395       -1.30331228799848        1.00444134112007
N           -4.06531553766498        0.59443361169486       -0.32689601781068
H           -6.82781527316992        0.67725258471253        2.03455986080813
C           -5.34514224122690        1.09066675614427        0.12499953632416
H           -5.19966126865700        1.57852565347091        1.10121084336287
C           -5.81647188364548        2.12293823570206       -0.91156749839714
C           -6.38347770425430        0.00011581788040        0.26067862307463
H           -5.01302864833077        2.84844705141330       -1.04347950721661
H           -5.94138789592385        1.58241298844404       -1.85017554155683
C           -7.12120726738523        2.84160720961214       -0.55516039689929
O           -7.15438554683108        0.02123191865720        1.40766828121870
H           -7.87944328570322        2.09615078140470       -0.28940559292128
C           -6.94007317340565        3.80579126338678        0.61649401112510
C           -7.62642205770026        3.60740259099935       -1.77644427025023
H           -6.19920601465830        4.56269692688854        0.36767203136210
H           -7.87919896080771        4.30690028629498        0.84022940124112
H           -6.61161111596782        3.29397594514500        1.51853115805508
H           -7.81070729039372        2.92659691875553       -2.60337677329348
H           -8.55467561826733        4.12471989972487       -1.54558993522823
H           -6.89057668107101        4.34368906511169       -2.09247970685586
N           -6.51585405176361       -0.82778887495466       -0.66569158940562
H           -8.72115649262774       -0.40155112107032        0.60759736109863
C           -7.42855989066880       -1.93911871654613       -0.72267392091469
H           -7.12760179131052       -2.51399412196104       -1.60662737820355
C           -7.39187538187394       -2.85379812909048        0.50928084879736
C           -8.87909680170893       -1.49533013206975       -0.96408570054975
H           -7.76794107815673       -2.34625853925065        1.39476462372505
H           -7.99749339828562       -3.73734407584896        0.32311139084630
H           -6.36495115336310       -3.15678913020486        0.69914789169486
O           -9.37561533498639       -0.63049058261266       -0.07907837867101
O           -9.53656601768733       -1.91312418140440       -1.87426423231385
