42
 energy: -62.486133516132 gnorm: 0.000479534395 xtb: 6.7.1 (edcfbbe)
N           -0.89353796704501       -0.83011079570252        0.37977672882030
H           -0.58187429456235        0.06073366208556        0.75252166731256
H           -0.07966271644743       -1.32514869550838        0.03488427133160
H           -2.42193122819868       -1.27434975121925        1.43688970911098
C           -1.87223320515734       -0.63141583418854       -0.68925370844724
H           -1.64905222420824        0.21689721392785       -1.34919398513668
C           -1.98986923793135       -1.90410079231596       -1.52952614722769
C           -3.21048428479626       -0.38057556127309       -0.02161048029546
H           -2.21188635355641       -2.75752153450152       -0.89176190864455
H           -2.78792853743010       -1.78802454472857       -2.25671042273278
H           -1.05822850760871       -2.09557888594339       -2.05742153495424
O           -3.32200006011837       -0.95580753101594        1.21012339392351
N           -4.09161008223763        0.28484912065909       -0.60841876576151
H           -4.95241613307396       -1.68791535062487        0.80398817882190
C           -5.40904310543977        0.55404877721943       -0.06977276689802
H           -5.32096367049720        0.80798727381842        1.00131260421865
C           -5.99722078861171        1.73868901771467       -0.84037702425511
C           -6.29800377385542       -0.67498562190041       -0.12241061252373
H           -5.18407896393285        2.43933675107675       -1.03644497335151
H           -6.35512081757630        1.36878600295254       -1.80066524731535
C           -7.12848684351020        2.46179292176628       -0.10027764421983
O           -5.82409213293455       -1.82036265560821        0.39594343324016
H           -7.79933617426927        1.71068714973101        0.32650342059598
C           -6.58339109595614        3.33304240406007        1.03034332867475
C           -7.92091313072675        3.32667335118645       -1.07876933167955
H           -5.92980083527234        4.10577387709888        0.63045832214232
H           -7.39947514683398        3.81716348083626        1.56171777049650
H           -6.01747544714431        2.74540154434677        1.74919537932750
H           -8.36729468703137        2.72112103751840       -1.86334143757457
H           -8.71869224971322        3.85279994919005       -0.55984909796862
H           -7.26976098244743        4.06501614432929       -1.54209041869110
N           -7.46222983950547       -0.56837887831808       -0.59173719200871
H           -8.63595753708050        0.34408940992422       -1.60869180042495
C           -8.38169082264245       -1.68098493915542       -0.63814239073398
H           -7.89084724659337       -2.60941626456284       -0.95565267359949
C           -9.05269077755728       -1.91496537214459        0.72013066130473
C           -9.47100581270590       -1.31943540858759       -1.66006756850885
H           -9.51231651299174       -0.99295092779119        1.07105030083491
H           -9.81967121653662       -2.67695637835705        0.61454078646945
H           -8.31414500279721       -2.24300010928092        1.44733750625832
O           -9.42196123628630       -0.05367676658277       -2.05562042354076
O          -10.29781057787100       -2.10125234179703       -2.03997483140180
