42
 energy: -62.486133502247 gnorm: 0.000481066690 xtb: 6.7.1 (edcfbbe)
N           -0.88548360516265       -0.80303220514850        0.36837356217828
H           -0.53271221726238        0.09483540009933        0.68204824083912
H           -0.09730114164886       -1.35115890456596        0.04554257618543
H           -2.39128420500358       -1.11272048390961        1.48271282177753
C           -1.87170802478367       -0.63103049269675       -0.69894678145200
H           -1.64564309226497        0.19657930162261       -1.38364548046886
C           -2.00463498095563       -1.92299698264650       -1.50608235116916
C           -3.20340906089248       -0.34609495994479       -0.03002747313648
H           -2.22473729685532       -2.75963355256453       -0.84599501923300
H           -2.81015785586367       -1.81849193677134       -2.22664490037667
H           -1.07985142468485       -2.13175441477628       -2.03961159373146
O           -3.29638470248363       -0.81687664635481        1.24362635615690
N           -4.11557509380854        0.23116826069562       -0.66410954847741
H           -4.94764997227293       -1.69030085813025        0.75137616636841
C           -5.40799860942023        0.53764492288495       -0.08437973314172
H           -5.29353800426098        0.77396599341446        0.98769363693891
C           -5.98680307217777        1.73973868576920       -0.83401685783324
C           -6.30859435708657       -0.68036244175804       -0.14980274508066
H           -5.17018862253252        2.44089132501870       -1.01421262648720
H           -6.34096006425281        1.38793120119016       -1.80245193354637
C           -7.11872180972483        2.45433752680711       -0.08675259924964
O           -5.81971512923316       -1.83064084381652        0.35087197932330
H           -7.78582012819809        1.69861840874363        0.33742089410943
C           -6.57338835956133        3.32053077084584        1.04756437030387
C           -7.91597940952673        3.32134505677317       -1.05950040919044
H           -5.92192529179815        4.09680713238026        0.65091662733586
H           -7.38944300906685        3.80051888300727        1.58278488293541
H           -6.00536822713856        2.72926253050887        1.76172868316547
H           -8.36415865105211        2.71720503766461       -1.84418905960306
H           -8.71261135381189        3.84507577813922       -0.53649632393444
H           -7.26731192684168        4.06161756900722       -1.52325895903229
N           -7.47955933213366       -0.56981659818616       -0.59789855884392
H           -8.66094349925734        0.34410834002438       -1.61032141808448
C           -8.39581535332574       -1.68536305323282       -0.64726735074319
H           -7.90326035753229       -2.61088132247286       -0.97038136750280
C           -9.06060058059532       -1.92611992759616        0.71278982384597
C           -9.49045283861379       -1.32300687779704       -1.66309565972981
H           -9.51951802966959       -1.00618695318030        1.06999149385978
H           -9.82732654752417       -2.68837125056608        0.60722971395964
H           -8.31850329693289       -2.25669676398758        1.43524685756346
O           -9.44561851116516       -0.05633804491452       -2.05648930220495
O          -10.31553421506263       -2.10633245477915       -2.04340556641758
