42
 energy: -62.486133519072 gnorm: 0.000479341783 xtb: 6.7.1 (edcfbbe)
N           -0.96788854636197       -0.43905835008709       -0.87933396340976
H           -0.30060753053254       -0.91402328834619       -1.47506841743597
H           -0.64631989618825       -0.53768921140965        0.07988324982047
H           -1.91924377347834        1.22101978958060       -0.79802138081040
C           -2.30105034350404       -1.02662310147925       -1.01675973000658
H           -2.50122154514870       -1.13250063803706       -2.09045170465915
C           -2.47827250010360       -2.38235996082599       -0.33963105584241
C           -3.30890734260025       -0.00508255311392       -0.49892287914987
H           -2.24142472849967       -2.30620173596114        0.71986214283251
H           -3.51298232293946       -2.69090289552897       -0.43899833653687
H           -1.82850887697039       -3.12653232800552       -0.79601249156326
O           -2.85377287119305        1.26512454426174       -0.50835657474217
N           -4.43304214724958       -0.41303145290158       -0.12757806197139
H           -7.43980048555146        0.19182655104659        1.84661006879844
C           -5.53373761720495        0.39255939081708        0.33085521577339
H           -5.39580711017019        0.56792014364000        1.40860478093770
C           -5.70534870823693        1.74020311623757       -0.40181432061482
C           -6.78594204925502       -0.42823670645281        0.11272804330517
H           -4.79317230254882        2.32253294300144       -0.27444703627058
H           -5.81492956961374        1.50464599208210       -1.46226902660574
C           -6.90070201335172        2.58260468122152        0.05741226035043
O           -7.74374208917514       -0.35786258067852        1.11461838044346
H           -7.81220112023249        1.97560901440806        0.02975034322192
C           -6.70173746109521        3.12875650137670        1.47134835886565
C           -7.09369745395639        3.74566526612695       -0.91465402837677
H           -5.82149211293244        3.76748944934901        1.50347132341473
H           -7.56407204176922        3.71980541819671        1.77211197682809
H           -6.56724235002937        2.33638030544820        2.20575753544315
H           -7.29231567168916        3.37540877392877       -1.91719403672962
H           -7.93296432357574        4.36484752747574       -0.60627174496568
H           -6.20039238812155        4.36585969675960       -0.94618862577736
N           -6.90996182789211       -1.09614181111232       -0.93297636216495
H           -9.18367482624982       -0.31193983484181        0.02806578346787
C           -8.01495405649026       -1.93615166668447       -1.31357637548284
H           -7.68301266068611       -2.45799883931946       -2.21863575020024
C           -8.41524657154531       -2.97343861990025       -0.25528171093865
C           -9.26021004510656       -1.12750372122882       -1.70902833473520
H           -8.80780051308708       -2.49884434163829        0.64137778802445
H           -9.17326389665034       -3.63625206611443       -0.66534060568922
H           -7.54119537378150       -3.55980263016658        0.01853391235153
O           -9.72487994351465       -0.28729386484238       -0.78414320536182
O           -9.79945223515840       -1.25481301191366       -2.77110033310053
