42
 energy: -62.486133510402 gnorm: 0.000479223927 xtb: 6.7.1 (edcfbbe)
N           -1.84627168204396       -1.35871953149478       -0.85427833834697
H           -1.21251903712389       -2.14391245069470       -0.76712314579649
H           -1.30404418426335       -0.51221708350785       -0.70288050190107
H           -3.25324950250732       -0.71702028891713       -2.01910439624696
C           -2.91704078866750       -1.44222227327517        0.13952775871175
H           -3.32843453832749       -2.45896248353175        0.08717788812565
C           -2.48905337484277       -1.14729075198516        1.57413137289119
C           -4.02734492155511       -0.50923935584751       -0.31769036067603
H           -2.04596553523742       -0.15544122444409        1.63709648968639
H           -3.36078280679976       -1.17349216574489        2.21850554141838
H           -1.76292510647687       -1.88307531756416        1.91373813155814
O           -4.04566738050452       -0.27920013856056       -1.64811530142731
N           -4.85143778554436       -0.06951844984995        0.52135589948158
H           -6.79265753537578        0.81178482247129       -2.19872791917495
C           -5.96169480714452        0.78882045287934        0.14612504468614
H           -6.39111168404854        1.10037998773753        1.10676593023844
C           -5.56128047582708        2.03627666086606       -0.64820356698348
C           -6.99728128765940       -0.09853541871925       -0.52305484674566
H           -4.70623190118928        2.48438082254612       -0.13613884583018
H           -5.21008882804513        1.75323600951795       -1.64491165389275
C           -6.68723123009172        3.07733663032846       -0.74995743927992
O           -7.31091256498821        0.09117287501161       -1.81779704749839
H           -7.64060166049181        2.56767699022646       -0.93285462041757
C           -6.81951228338196        3.87153864958054        0.54768351688907
C           -6.41541250056425        4.02885950853781       -1.91516589578627
H           -5.90625469860491        4.42936012833584        0.74450186444738
H           -7.64319032394657        4.57795174144926        0.47571017957529
H           -7.00991184807495        3.21431601774643        1.39211570321466
H           -6.37895370783065        3.49454071269250       -2.86299079347256
H           -7.19784296334225        4.78096465890704       -1.98127837401007
H           -5.46414119252907        4.53737138191176       -1.77246945638955
N           -7.47357602058071       -1.04181988409732        0.16242820728135
H           -7.68867313678199       -1.84278190984863        1.76216695265046
C           -8.40071001960217       -2.00607354377106       -0.38090597020253
H           -9.21856879911955       -1.52293225630764       -0.93025838166984
C           -7.70504591859751       -3.00844702294851       -1.30914824090177
C           -8.98901483149214       -2.77920515913393        0.81012641285874
H           -6.86296899009038       -3.46507418310127       -0.79233269390973
H           -8.41134870598449       -3.78273806882371       -1.59489585630953
H           -7.34255347357705       -2.50104106523796       -2.19946656851157
O           -8.37336966006274       -2.52759057530427        1.95755419679224
O           -9.90131358655407       -3.55144327922365        0.70197445595713
