42
 energy: -62.486133513194 gnorm: 0.000479776375 xtb: 6.7.1 (edcfbbe)
N           -0.75056189103287       -0.06326050348410       -0.36344516607207
H            0.06414982455780       -0.25536709409513       -0.93318668818680
H           -0.59450432351416       -0.48961239532843        0.54581654541396
H           -1.89823862009500        1.42561466495441        0.10980687619244
C           -1.95867185802947       -0.61682350037140       -0.97260900924953
H           -1.95026624340341       -0.32973988172099       -2.03199397261098
C           -2.09471684437614       -2.13425923178675       -0.86764479938920
C           -3.14627943097668        0.09961176032338       -0.34523909734882
H           -2.07406617211489       -2.44291286346606        0.17610081600550
H           -3.04009921123528       -2.44153974211834       -1.30195569729665
H           -1.28060193713106       -2.62606891006513       -1.39566962626179
O           -2.86630034331377        1.30228116767276        0.18056116896477
N           -4.27762680078667       -0.44802931162814       -0.36664630590622
H           -5.25295152591600       -2.06481267738434        0.81102198309677
C           -5.46639619414993        0.18806903982105        0.17396646131514
H           -5.30868077741650        0.42242746330031        1.23784624182779
C           -5.84658190410150        1.46968531715717       -0.57626693941187
C           -6.53169081544414       -0.88365632691799        0.06967948431330
H           -4.96062832612586        2.10249167477549       -0.64268935695377
H           -6.13924050437745        1.18364202612250       -1.58745797311785
C           -6.97656219043246        2.26319469137553        0.09024163830824
O           -6.20464277959118       -2.06438088333148        0.63389705009414
H           -7.75925861424022        1.56441840295138        0.39861291572223
C           -6.47435140680898        3.01471297102419        1.32155355957523
C           -7.57143274298748        3.25134156767981       -0.91162818681375
H           -5.69231484736215        3.71809578471955        1.04301346918923
H           -7.28751640645447        3.57080561182076        1.78238334773728
H           -6.07027522566704        2.33276419636269        2.06553289636318
H           -7.98508884059152        2.73204713667870       -1.77259322835583
H           -8.36750009967053        3.82907009308760       -0.44804371666785
H           -6.80654601093183        3.94227012323232       -1.26034588950295
N           -7.58969489007751       -0.69335776597859       -0.58201958780501
H           -8.54884712783935        0.31887082193835       -1.72024270545359
C           -8.58477064183645       -1.72556333771998       -0.75446874048142
H           -8.13041840672075       -2.68510013490921       -1.03283797937377
C           -9.42488303678416       -1.92763712580891        0.51115625670226
C           -9.51363861414051       -1.26527979714857       -1.88885751783199
H           -9.84804774793272       -0.97778446159933        0.83251317016933
H          -10.23230743687914       -2.62257861686462        0.29854138168786
H           -8.80233009197904       -2.32726071400149        1.30767994396883
O           -9.30713663081177       -0.00826332124991       -2.26174315523920
O          -10.35467357506237       -1.97015177288316       -2.37340483612135
