42
 energy: -62.486133506468 gnorm: 0.000481008545 xtb: 6.7.1 (edcfbbe)
N           -1.03870365773877       -0.53452338388321       -1.06133299622375
H           -0.27079795546830       -1.17787257430404       -1.20973078380119
H           -0.68880936828786        0.23323262794458       -0.49445601099003
H           -2.40039579282389        0.32420350512551       -2.07722909521421
C           -2.14888124389188       -1.19159002864554       -0.37166197418905
H           -2.31921798512904       -2.15382217119391       -0.87209041958408
C           -1.92649605199922       -1.43219110237902        1.11816473077816
C           -3.39054687661225       -0.34298085840909       -0.62189585835860
H           -1.72859319918184       -0.48981543005693        1.62456535346260
H           -2.82114147779968       -1.86859410750048        1.54851848508726
H           -1.08419510994932       -2.10318486762709        1.27355266167400
O           -3.32228725837427        0.39909398285947       -1.75359129069205
N           -4.36748633639965       -0.44514691902936        0.15624330909440
H           -5.40669839791258       -0.68710127647617       -2.08228298597332
C           -5.60314970762959        0.29982366661267        0.09323426317275
H           -5.92605797952183        0.38818663693852        1.13534672106216
C           -5.54469473067234        1.69834836134437       -0.54472147927871
C           -6.62885027186875       -0.55147402225801       -0.62112062533218
H           -4.71005875646963        2.24057091657812       -0.09419539820193
H           -5.33845263888540        1.60696579781125       -1.61335272338163
C           -6.83710495257287        2.50216840596336       -0.35840415386936
O           -6.28297008078647       -1.01605955781709       -1.83722354497944
H           -7.68360460897746        1.88078204585068       -0.66926368412948
C           -7.04884494913595        2.91780927379058        1.09505960107647
C           -6.79246482669123        3.74317258791453       -1.24941874125202
H           -6.21284161079069        3.52206642007922        1.44210612054083
H           -7.95789355860137        3.50740946959451        1.18460595953163
H           -7.14597904273221        2.05289793000156        1.74510835212774
H           -6.69001631212845        3.46674812681122       -2.29647388201737
H           -7.70531985382155        4.32294376288387       -1.13810073495821
H           -5.94943561541259        4.37507601215309       -0.97680917388954
N           -7.75169047179338       -0.74987071990097       -0.08872284650964
H           -9.02692916448014       -0.21196324209650        1.09128387771470
C           -8.78540787641976       -1.51301698997008       -0.75116043780616
H           -8.81842058035265       -1.31510701816959       -1.83025826221485
C           -8.59456816456999       -3.01728290238924       -0.52919549176754
C          -10.12614576923454       -1.09743585822669       -0.12764806038349
H           -8.52370846704799       -3.22892092346194        0.53566632652590
H           -9.44403835507944       -3.55210319382153       -0.94454858523516
H           -7.68186960232101       -3.34972310564974       -1.01744157261465
O           -9.99394626637492       -0.35457315903205        0.96489193778105
O          -11.18747633668665       -1.42917187097647       -0.57708181838777
