42
 energy: -62.486133514581 gnorm: 0.000479701016 xtb: 6.7.1 (edcfbbe)
N           -0.90709226576211       -0.36586908903274       -0.69628401307363
H           -0.20149813484286       -0.84862671430202       -1.23873844980686
H           -0.62625401775477       -0.40890806758730        0.27948615946640
H           -1.88920397050933        1.27806030769971       -0.72688575653653
C           -2.21810093625440       -0.99258727115821       -0.86395832277411
H           -2.35930682713198       -1.17363246296617       -1.93693842425465
C           -2.40101346700903       -2.30536079538598       -0.10678408080361
C           -3.27095009100870        0.03590617855001       -0.46473165276748
H           -2.22169725872948       -2.15319097229635        0.95597461489739
H           -3.42073330095959       -2.65056071482287       -0.23732379325955
H           -1.71083960799569       -3.06051800776932       -0.47767135783607
O           -2.84144688367608        1.31094966557364       -0.49996921210864
N           -4.41696383549773       -0.36343744633338       -0.14651414445139
H           -6.53350222205309       -0.48816480618415        2.17213053773911
C           -5.52194640528346        0.50874575206143        0.19174851131757
H           -5.33900027494265        0.93795892010392        1.18850546315791
C           -5.76668659936414        1.64206584320100       -0.81563544415190
C           -6.73503065951223       -0.39646471009334        0.23783900006972
H           -4.86621671601343        2.25150016809727       -0.88617866724554
H           -5.95033281914376        1.16875753380100       -1.78056853973045
C           -6.95752868551261        2.53724362873603       -0.45717999064154
O           -7.15928413069208       -0.77887277414891        1.49827470941824
H           -7.83662613289764        1.90676328520739       -0.28565679975147
C           -6.69160004422297        3.36740747273335        0.79750277057783
C           -7.25958135697229        3.46252086487098       -1.63427567423553
H           -5.78705605072675        3.95965668687833        0.67394472070957
H           -7.52257876505659        4.04444727446064        0.98202800605310
H           -6.57428379723330        2.73999884787638        1.67816954386093
H           -7.49180345376627        2.88214899448399       -2.52334210164635
H           -8.11139916828601        4.10018337205002       -1.40986423839803
H           -6.40127966562915        4.09625614735874       -1.84812864887481
N           -7.26087238796276       -0.77640798679214       -0.82844385150561
H           -8.93493985918240       -0.66562853729550        1.13187461053025
C           -8.37157161258405       -1.67796137458104       -0.98528773807343
H           -8.42987569057639       -1.88022647645624       -2.06110561744011
C           -8.22621507241027       -3.00770701499656       -0.23245383506575
C           -9.70867461966190       -1.03284124759761       -0.58961967709807
H           -8.23906491981997       -2.86058315308976        0.84520773713496
H           -9.04234929151712       -3.67078758115579       -0.50870172569025
H           -7.28195277753130       -3.47224308761872       -0.50702099567557
O           -9.77181762873897       -0.53918888980770        0.64722529501159
O          -10.64801985488033       -0.99282754841722       -1.33171385220544
