42
 energy: -62.486133505622 gnorm: 0.000480974447 xtb: 6.7.1 (edcfbbe)
N           -1.34195927809754       -0.72807416636142       -1.66443116890128
H           -0.74133534933605       -1.46193762538828       -2.01977642108845
H           -0.77070391507205       -0.11598670141401       -1.08799668112481
H           -2.67082743778212        0.50371788504276       -2.27404241296729
C           -2.43252637212770       -1.28599354386325       -0.86565156897051
H           -2.86295358506063       -2.11822691875668       -1.43638061044885
C           -2.01619856463087       -1.78588332846428        0.51530998203156
C           -3.52871355047416       -0.22550299484212       -0.77595911521283
H           -1.56016278412997       -0.97794922091559        1.08428888942483
H           -2.89549219038798       -2.12757032642321        1.04956549514649
H           -1.30333679150452       -2.60353455709087        0.42724215227219
O           -3.46579756675089        0.70692986468593       -1.73960955602041
N           -4.37454392515809       -0.33416275619989        0.14327692618978
H           -7.31669343211543        0.20900426375837        2.02628938289523
C           -5.51969362431677        0.50272281906504        0.38835359333253
H           -5.42056445056479        0.81380812276126        1.43999319118579
C           -5.71460121958206        1.74265873026042       -0.50196762432348
C           -6.73951155843396       -0.38630671984023        0.26115915034353
H           -4.80675857900450        2.34608878883504       -0.46489671378650
H           -5.84578037408722        1.38924403296466       -1.52464549884411
C           -6.91584598067809        2.60963200074174       -0.10593660881748
O           -7.64144070640029       -0.35001482776456        1.31031217108453
H           -7.80003119735135        1.97265251684772        0.00988639660191
C           -6.66991373249116        3.36361580502140        1.20073672801512
C           -7.20857369844952        3.60731801199244       -1.22514944891003
H           -5.81765769044421        4.03127902731601        1.09209994074146
H           -7.54059768024389        3.96173201152164        1.46058007205230
H           -6.46663377016350        2.69014092830354        2.03114274357351
H           -7.44912210039603        3.08443419873055       -2.14718204807801
H           -8.05198351854022        4.24118299653660       -0.96083673212025
H           -6.34273480017326        4.24124464547345       -1.40380980097739
N           -6.88136387166063       -1.07855546974836       -0.76802753983497
H           -9.14236143838108       -0.39051457274645        0.29293121729376
C           -7.95849481851325       -1.98255159179779       -1.07561388068612
H           -7.64438325942186       -2.50704193431909       -1.98550843381604
C           -8.25681716131439       -3.01395813718478        0.02100437021352
C           -9.25839002917775       -1.24186703988551       -1.42574823807939
H           -8.63396381666880       -2.53993017517500        0.92452037526860
H           -8.99679742676816       -3.72334811460839       -0.34130691361181
H           -7.34245503934073       -3.54881911285327        0.26749848544099
O           -9.72018644337295       -0.40845067091044       -0.49322393007731
O           -9.83828853763816       -1.41325175617050       -2.45955506952612
