42
 energy: -62.486133508786 gnorm: 0.000480365696 xtb: 6.7.1 (edcfbbe)
N           -1.31996713248490       -1.10589644421875       -1.17712751014752
H           -0.59676791213904       -1.81303752535725       -1.13028104875778
H           -0.86296781975502       -0.19860531966379       -1.13994248913657
H           -2.83989501664623       -0.70954221568549       -2.20796618222742
C           -2.25544985661355       -1.23492981203822       -0.05932586912243
H           -2.50237031116517       -2.29959209885740        0.04090278988906
C           -1.73344637121607       -0.71156268224743        1.27561545007789
C           -3.54356984000459       -0.53151829794697       -0.46581858298594
H           -1.45414696569016        0.33611402233201        1.18330635832380
H           -2.51628978518545       -0.79169730084861        2.02175382439744
H           -0.86546965945613       -1.28377849062871        1.59638493886190
O           -3.67747560205561       -0.38266466301973       -1.81401192334099
N           -4.35410295140104       -0.17407270579911        0.41716342847020
H           -5.49869334790122       -0.54811704664025       -2.02267866164888
C           -5.62715555429939        0.48092837988614        0.20443463934184
H           -6.00979606168940        0.67684438507736        1.21020895547400
C           -5.48379758868705        1.80872743417763       -0.56263037181267
C           -6.63170738987600       -0.41806510674094       -0.48380354485947
H           -4.82301377328404        2.45702116133789        0.01775139296391
H           -4.99754824149052        1.61789648540112       -1.52268264015428
C           -6.81349371475326        2.52717718632712       -0.81695045207427
O           -6.37876794791736       -0.84122451134715       -1.72999361381718
H           -7.46701021780685        1.86461364458818       -1.39533718765755
C           -7.52507150001337        2.88874680136880        0.48385396943935
C           -6.55250523326867        3.78676911649247       -1.64211328432685
H           -6.86695910256215        3.46645728309396        1.12954176014053
H           -8.40798723785266        3.48658657796061        0.27097185600456
H           -7.84372023495511        1.99588787474285        1.01388300141022
H           -6.06159754778603        3.54202760058481       -2.58172992012983
H           -7.48781920900266        4.29268010504079       -1.86805500358172
H           -5.91546674778166        4.47493067919603       -1.09014141607486
N           -7.68353135870250       -0.71592138320186        0.14690145374119
H           -8.81447831832462       -0.45761959526931        1.53390956037389
C           -8.71252434224573       -1.54229326259911       -0.44533178658263
H           -8.93103301009458       -1.24196935591092       -1.47810243866190
C           -8.32961596379780       -3.02643622138394       -0.43415180998245
C           -9.98106363159689       -1.36249347524026        0.40092964361457
H           -8.05989345739039       -3.33172281518548        0.57495049254941
H           -9.17604748785769       -3.61745869480358       -0.77240794082478
H           -7.48275091277164       -3.19534612152100       -1.09444818476801
O           -9.76815011098900       -0.70931710017147        1.53713608789066
O          -11.05307597667143       -1.79053579366474        0.07436880043402
