42
 energy: -62.486143125569 gnorm: 0.000732952457 xtb: 6.7.1 (edcfbbe)
N           -1.87233791869061       -1.85333453507891       -1.46908892986933
H           -1.00119761664033       -2.36234520696539       -1.38704226254727
H           -1.81182759248836       -1.27299324448840       -2.30113677788248
H           -3.76563092497713       -2.13754332060156       -1.46683880810976
C           -2.10802570810951       -1.01610534621911       -0.29495562112035
H           -1.87630959714107       -1.62061403235027        0.59140241695513
C           -1.28713546032447        0.27147529981283       -0.25359783728127
C           -3.60128081930681       -0.71487423656802       -0.24874632622478
H           -1.47605859405042        0.86238206926962       -1.14780019118875
H           -1.57969584909927        0.85724594137977        0.61119132528330
H           -0.22436941575520        0.04498656614105       -0.19622478957882
O           -4.36712426297221       -1.52276823648475       -0.99777170348972
N           -4.01759255647506        0.22378049173941        0.48031228927714
H           -5.15638482687051       -1.43299938473236        1.84695821557862
C           -5.42691368510288        0.56511205802876        0.55768660855017
H           -5.55015275729885        1.05058951740712        1.53652389454341
C           -5.76887358808895        1.56616424319889       -0.55344581051501
C           -6.31900539778954       -0.65698000846436        0.53749608154663
H           -4.92833854888173        2.25786418322197       -0.64426828491972
H           -5.85130119764856        1.00681864455047       -1.48634485598195
C           -7.05544790894156        2.36107965878366       -0.30396766864887
O           -5.99396056052463       -1.63741920552157        1.41095123948609
H           -7.82129880866707        1.67303188296729        0.06410741543571
C           -6.83671932584711        3.45793615443441        0.73619553966964
C           -7.54150030219018        2.97984572895738       -1.61352058793014
H           -6.09113177064488        4.16904946854182        0.38606224185495
H           -7.76404052800269        3.99654361382165        0.91703966314256
H           -6.49718291069922        3.04524539331893        1.68278958291930
H           -7.76232471294634        2.21133480215737       -2.35011998235603
H           -8.44569430127368        3.56009415830335       -1.44600314315168
H           -6.78177509149727        3.64253983277677       -2.02328000576620
N           -7.32744870163020       -0.70762937871012       -0.21049242068013
H           -8.12020879537814       -0.13942135848746       -1.71746013168339
C           -8.20082649228610       -1.85629651719601       -0.25367897636950
H           -7.64353362214818       -2.79880386976004       -0.18380926328028
C           -9.24520193670880       -1.81149631366043        0.86674748018397
C           -8.93238326939390       -1.80979667809808       -1.60418251789729
H           -9.77773884028031       -0.86268360757582        0.84127150682148
H           -9.95545411612236       -2.62160753749442        0.72721125602519
H           -8.75791859300314       -1.91920144364742        1.83266492492964
O           -8.74348134441562       -0.67498075667769       -2.26621466524907
O           -9.62139733979953       -2.70520387673901       -2.00779627562949
