42
 energy: -62.486133524277 gnorm: 0.000478250280 xtb: 6.7.1 (edcfbbe)
N           -1.22944067178904       -0.59110823659524       -1.50614485820141
H           -0.60737478581328       -1.28015164361823       -1.91121792495615
H           -0.71822580141599       -0.11143808736789       -0.77018743789135
H           -2.48357763990459        0.75928902056164       -2.07086746523801
C           -2.42025007352663       -1.22967082037168       -0.94530918634230
H           -2.81489171353949       -1.90859869515390       -1.71234265929941
C           -2.17959147451191       -2.01391711126302        0.34129820911080
C           -3.47883550458803       -0.14510154444184       -0.76293745309313
H           -1.75839302869222       -1.36286061937390        1.10485691467321
H           -3.12628221903672       -2.39915109877461        0.70348803083520
H           -1.49462709032012       -2.84045220750248        0.16201686235009
O           -3.31676577638339        0.91057686841660       -1.58056543066286
N           -4.38047451094731       -0.33638122498982        0.08552374548380
H           -7.38684931606342        0.31977872604883        1.94298977964462
C           -5.51456492272355        0.49847366899718        0.37857371948287
H           -5.40169035405552        0.77906713867893        1.43710913509655
C           -5.71059656536221        1.76272070073635       -0.47974396031596
C           -6.74007652796737       -0.38065883039231        0.24002149820048
H           -4.80966060858322        2.37323956490289       -0.41098306527068
H           -5.81765992089496        1.43387596044507       -1.51397328301693
C           -6.92466022844575        2.61479269921076       -0.09153358118185
O           -7.68279702887397       -0.28255232655696        1.25007713597144
H           -7.81444671907318        1.97831916775274       -0.03205365812304
C           -6.72160886046980        3.31971373468505        1.24962602595457
C           -7.17537198662536        3.65537759234316       -1.18182415300621
H           -5.87338232247641        3.99852823604624        1.18944032808540
H           -7.60460238553590        3.89993747517816        1.50845040331210
H           -6.53277075120713        2.61782347213191        2.05994944533922
H           -7.38815314460208        3.16897074863073       -2.13025430701139
H           -8.02366787430574        4.28434638865616       -0.92162286991409
H           -6.30083778584336        4.28989564832666       -1.30860033586183
N           -6.85148390485713       -1.12048549339418       -0.75883027328368
H           -9.14221341048867       -0.36458349105328        0.18653183596728
C           -7.92603881789176       -2.02853113310815       -1.06353209832681
H           -7.58530785162321       -2.59566746971869       -1.93753657877629
C           -8.26756905337013       -3.00794018150735        0.06785315892371
C           -9.20992555069239       -1.30008792554418       -1.49012727733357
H           -8.67139280099487       -2.49133585880818        0.93586415647863
H           -8.99967694655796       -3.72940202685078       -0.28648844365397
H           -7.36536351042152       -3.53563340959460        0.36854523725799
O           -9.69501264387206       -0.41806163885616       -0.61613142323790
O           -9.76007918278559       -1.52298135713729       -2.53047268465773
