42
 energy: -62.486133506643 gnorm: 0.000480045407 xtb: 6.7.1 (edcfbbe)
N           -2.10011523615363       -0.28100116384335       -1.50676138289114
H           -2.09983490630916        0.72927594590874       -1.60588314089813
H           -1.96025807656836       -0.68293880408737       -2.42736899196245
H           -1.53132006686780       -0.75256593087331        0.35708022385331
C           -3.36765389980565       -0.74568462611416       -0.93540427876155
H           -4.25918597270227       -0.34420036511504       -1.42993970768517
C           -3.40346742787078       -2.27365320674752       -1.00960893622414
C           -3.34468443768939       -0.34619969201771        0.53990296182199
H           -2.50754722597620       -2.69526422323980       -0.55832879456115
H           -4.27517909176712       -2.64177545478187       -0.48005030704539
H           -3.45775428316348       -2.59569145014657       -2.04724513050304
O           -2.14539000085379       -0.56817769460446        1.09461651061705
N           -4.23001989819599        0.12673610149812        1.29888444932167
H           -7.86514462371553        0.37416993173709        1.65179656550379
C           -5.55109866549080        0.59711688504732        1.02020043769234
H           -5.93336010912536        0.88320730147637        2.01269564937424
C           -5.49312932153998        1.86749696171539        0.13565127484558
C           -6.54686031826435       -0.37013774494608        0.41914827264908
H           -4.69201249789055        2.49629801479722        0.52990958808536
H           -5.21464983570777        1.55807877604699       -0.87283951808017
C           -6.78899717940363        2.68414797675337        0.06436320692765
O           -7.82867563940174       -0.26491350681969        0.92911376527230
H           -7.62317186663964        2.02331897075454       -0.19619696924911
C           -7.09537788844026        3.38626825905270        1.38646271180825
C           -6.66295981336847        3.72445725811091       -1.04848966678501
H           -6.29718928059376        4.08323478336088        1.63181617553707
H           -8.02506369978848        3.94535759813902        1.30784152522179
H           -7.19296233074640        2.68570641815542        2.21313555085055
H           -6.51381411474427        3.24145494667878       -2.01121779736016
H           -7.56503474081904        4.32849863237015       -1.10720895584818
H           -5.81921590934624        4.38405891378050       -0.85737013230001
N           -6.22390425897861       -1.17879869280224       -0.47673263616537
H           -8.74164036474031       -0.45328166852217       -0.63677668943082
C           -7.08170518126929       -2.12355917086155       -1.14979959248292
H           -6.41029382731595       -2.74236099889748       -1.75651312808899
C           -7.89922649639272       -3.03258107972083       -0.22467019114766
C           -8.01854409538189       -1.40974197286337       -2.13750258240856
H           -8.62089980301569       -2.46954549286464        0.36267313833224
H           -8.42900214816757       -3.77027491653929       -0.82237635675456
H           -7.22798999725236       -3.54838645579888        0.45864119387470
O           -8.86172369160707       -0.52775598814851       -1.60253362495689
O           -8.00013320941674       -1.63238604350970       -3.31417063904360
