42
 energy: -62.486133504134 gnorm: 0.000481136413 xtb: 6.7.1 (edcfbbe)
N           -1.56673022488503       -1.12678036699996        1.14298250738197
H           -0.61851168023594       -1.44488740917817        0.98351881761890
H           -2.03817887159696       -1.83765784827625        1.69623720224145
H           -2.55733995675951        0.41696846434004        1.72896819407029
C           -2.27539859533200       -0.93672891397291       -0.12199548934848
H           -1.61538219505999       -0.35761592489631       -0.78132379638255
C           -2.68398447400553       -2.22984584086081       -0.82445487638717
C           -3.48462034914045       -0.06044797775255        0.17212409591627
H           -3.32341441677152       -2.82231114689767       -0.17303308103096
H           -3.24203434060488       -1.99246222259199       -1.72365747110869
H           -1.80473292746140       -2.81457894704456       -1.08780049595068
O           -3.38934969459766        0.68088555499858        1.28691959729793
N           -4.46299516132482       -0.06509662481233       -0.61815320540380
H           -6.44178889370926        0.08850201589027       -2.52837266743799
C           -5.62485169413499        0.76647737892224       -0.35958505933222
H           -5.68225093538687        1.04323348935322        0.69984699072741
C           -5.57057924760882        2.03219482900556       -1.22450749297732
C           -6.79968910185755       -0.13101223283821       -0.67384640227346
H           -4.76269379586386        2.65728032403194       -0.83810035014418
H           -5.29662738460744        1.76047702468959       -2.24957517699987
C           -6.87634780680320        2.83650114768927       -1.23436552020325
O           -7.08967038854934       -0.35624510341492       -1.96736818032399
H           -7.68227738427056        2.20841830106272       -1.63076482537084
C           -7.26948815186838        3.28731203221071        0.17031518870645
C           -6.71694141759239        4.04802879703088       -2.15200523954072
H           -6.45385401846647        3.83631829884375        0.63589135279622
H           -8.13881897766406        3.93906451990331        0.12316548300460
H           -7.52010000230046        2.43581111580700        0.79729132076360
H           -6.44653262445113        3.74104454725658       -3.16029257492624
H           -7.64663630716671        4.60913014572276       -2.20462993187876
H           -5.93931983912383        4.70839390578243       -1.77417311610162
N           -7.37920096803541       -0.71758603291531        0.27844111149106
H           -7.75948853500952       -0.83074917300994        2.04216135535654
C           -8.44551662350953       -1.66925792751769        0.05525783842964
H           -9.16612784146667       -1.30847764423642       -0.68920309698157
C           -7.90345023827817       -3.02896565163503       -0.39961852302436
C           -9.17108000224167       -1.86026727880815        1.39543176071070
H           -7.14945320823105       -3.37950924772192        0.30235027923444
H           -8.71884148413312       -3.74592372012705       -0.43538219401196
H           -7.45456863295427       -2.93834122683331       -1.38522196419245
O           -8.54720384406445       -1.28977724298070        2.41930491728891
O          -10.19011901749982       -2.48354200180852        1.50615771752898
