42
 energy: -62.486133509469 gnorm: 0.000480350452 xtb: 6.7.1 (edcfbbe)
N           -1.36135420075750       -1.36938641917523       -0.73598511767033
H           -1.19099523075314       -1.99916405461536       -1.50972528075106
H           -0.98730181245283       -1.80526689786365        0.10186570832711
H           -1.06842580640962        0.32867305900828       -0.11771317831382
C           -2.79080124018754       -1.09690600236552       -0.56578631811270
H           -3.25524701100693       -1.14407852077468       -1.55516218408693
C           -3.46699697296179       -2.10015257809263        0.37400702570045
C           -2.93535964534896        0.33357356264910        0.02412377355994
H           -2.98755421818701       -2.06837487681998        1.35164493450569
H           -4.51860988450654       -1.86767128792333        0.51077890835485
H           -3.38438400292723       -3.10927164759048       -0.02744346623100
O           -1.75663210499321        0.92835396461607        0.24419950793473
N           -3.95127534963230        0.91488329846487        0.46849545651967
H           -4.97354852313555       -0.09366300429340       -1.89609996728549
C           -5.35058741409696        0.97706954564040        0.24238713902984
H           -5.79316973529470        1.16167456832653        1.22725114956937
C           -5.60859008364666        2.21499135237013       -0.64832863632348
C           -6.08434466169602       -0.21027354397714       -0.34790707306585
H           -5.06771616314190        3.04608556623169       -0.19475784258474
H           -5.16493721640232        2.04164635407686       -1.63436938374451
C           -7.08540428623242        2.58710652854772       -0.81778905568801
O           -5.65565309926300       -0.67990394333682       -1.54520238724929
H           -7.63278071836346        1.71931411505520       -1.20186159950376
C           -7.71708190786956        3.01147730574215        0.50486686579783
C           -7.20180047102077        3.72029624815430       -1.83684358154236
H           -7.16427632311902        3.84213153030482        0.93780853461748
H           -8.74406130794176        3.32844166893318        0.34208064500232
H           -7.72913867319120        2.19127222036180        1.21662317862639
H           -6.78786300673435        3.42551730398730       -2.79884062388410
H           -8.24443873107475        3.99029186167712       -1.98385805061349
H           -6.66529416550748        4.59943369257762       -1.48679762334765
N           -7.16134333021118       -0.59094340103114        0.18356533166644
H           -8.57465142002927       -0.22737401275295        1.29105722119726
C           -7.98603548555813       -1.61474702470816       -0.41628905108313
H           -8.02921572763547       -1.51641812377044       -1.50925758293805
C           -7.48689844198924       -3.02147302476376       -0.06897922086909
C           -9.40456390194598       -1.45018070134745        0.15016383450465
H           -7.37075262220561       -3.11949540670828        1.00868157598817
H           -8.21095393574357       -3.75260764161845       -0.41735941945319
H           -6.52906046028243       -3.20645136658958       -0.54937590568855
O           -9.47850765537835       -0.59423493058420        1.16191288519749
O          -10.34856903117021       -2.05438447823348       -0.27544306782982
