42
 energy: -62.486133516370 gnorm: 0.000478411636 xtb: 6.7.1 (edcfbbe)
N           -1.39652891013558       -0.69046670705981        0.32709021375233
H           -0.69442825599165       -1.41053249891211        0.20682734741923
H           -1.33949849224588       -0.36712779534931        1.28902741644453
H           -2.04562400176534        0.86304917437675       -0.56777506729885
C           -2.73542264478708       -1.22063374182092        0.06570423300161
H           -2.68325373728718       -1.77427997120303       -0.88097448333211
C           -3.28462043040432       -2.13739906941449        1.15455345799847
C           -3.65327636804867       -0.02609078755168       -0.18463841547269
H           -3.34612340089178       -1.60274483311842        2.09956394679408
H           -4.28221715750537       -2.46419172525975        0.88423550519841
H           -2.64109159166356       -3.00610093553569        1.27897002404825
O           -3.00051535637862        1.07842867384808       -0.60920033454345
N           -4.87994328315926       -0.17533412546599        0.00771883648301
H           -7.65933627979071        1.00279341668381       -2.00191197459830
C           -5.95273725277872        0.76680607956458       -0.18572303259282
H           -6.15277861627896        1.19605507212591        0.80672195409591
C           -5.72770201513030        1.91348010304020       -1.18312204221888
C           -7.15836951805651       -0.11008042215424       -0.51641597239961
H           -4.71640020116118        2.29170238896389       -1.04095924403199
H           -5.76742407361962        1.52161367967008       -2.20573141380664
C           -6.70863227450052        3.08502726523096       -1.00052649019339
O           -7.96111888249377        0.20317882139461       -1.55208206014198
H           -7.71172539581386        2.70712031968174       -0.76566350778498
C           -6.26809410324471        3.97611551280580        0.15954495308182
C           -6.78779550903712        3.90943209537824       -2.28530314472582
H           -5.29653046847012        4.41757118959758       -0.05162626483872
H           -6.98462149107666        4.77951717813228        0.31450285076282
H           -6.19211791919817        3.40761682663104        1.08339138165893
H           -7.15787383738957        3.31470243691404       -3.11908562074711
H           -7.45616895706052        4.75693337042506       -2.15256077811427
H           -5.80281000233278        4.28892376315282       -2.54832323357109
N           -7.34034186488792       -1.11854441695309        0.21057525219410
H           -6.74220501228650       -2.08591203830986        1.55956495435088
C           -8.39671553102776       -2.08133514376506        0.02900384996068
H           -9.38466409682824       -1.60478782238475        0.06818213131896
C           -8.27991631476816       -2.86849274867861       -1.28054685853735
C           -8.28091804497417       -3.07004829793049        1.20471033559456
H           -7.28025734503189       -3.28922952304532       -1.36923892980415
H           -9.00741500022263       -3.67542306189924       -1.27604992384491
H           -8.46711693254884       -2.21614055341863       -2.12906596354495
O           -7.19852641156979       -2.87840524787297        1.94499457265084
O           -9.08333426234549       -3.93879174151013        1.41057663824812
