42
 energy: -62.486133513547 gnorm: 0.000480061679 xtb: 6.7.1 (edcfbbe)
N           -1.97313842085577       -1.61559545845579        1.53387034816518
H           -1.93250802851908       -1.16544701536565        2.44229002177843
H           -1.05650196931556       -1.99496946750602        1.32866628691016
H           -3.79102632461165       -2.19038274832250        1.42687143610945
C           -2.39135915743758       -0.66919123514051        0.50274310324303
H           -1.92355305941832        0.32099678726232        0.58732592601801
C           -2.08995924336606       -1.25217878165119       -0.87792785259537
C           -3.90514463572773       -0.50142792593612        0.62872218441768
H           -2.55398727526877       -2.23088122121637       -0.97908197443769
H           -2.48242330164915       -0.59296555097813       -1.64622510204082
H           -1.01628532729399       -1.35792302577777       -1.01921116619170
O           -4.50945372190252       -1.57961566630245        1.14906053456895
N           -4.38782778215255        0.58956659539909        0.25714541333316
H           -7.92478799419560        1.95251836809813        0.45393062383766
C           -5.71884214831450        1.10227733614072        0.12039354447543
H           -5.75285333023428        1.97342823234027        0.79129194650461
C           -5.75442364479626        1.59561137327504       -1.35546678924263
C           -6.95897015188976        0.27410376828398        0.38889122004287
H           -4.77297608105907        2.03516362513482       -1.54371968986020
H           -5.84139297084768        0.70593247788800       -1.98340227476229
C           -6.82856606995978        2.60671191097149       -1.77135740654495
O           -8.10338269920567        1.00611880796819        0.50042449950291
H           -7.82515041081321        2.17735682424586       -1.62352007680368
C           -6.71494511821968        3.92076565843473       -0.99848698692484
C           -6.67730280205231        2.88799172775755       -3.26734881296299
H           -5.73385600970559        4.36254079781961       -1.15898425720593
H           -7.46763816860453        4.62568087310818       -1.34495346169860
H           -6.85025924471229        3.79110739870545        0.07415846855368
H           -6.77295841680608        1.97066580564063       -3.84314013277797
H           -7.44348669900236        3.58321131706511       -3.60244022715622
H           -5.70294377398832        3.32437374493516       -3.47564507466279
N           -6.96304190184499       -0.96770694995071        0.57181909917443
H           -6.07937780943715       -2.58855485612465        1.02206782050554
C           -8.20276820666533       -1.67062159233189        0.81513533872533
H           -8.80129745594015       -1.16943920441367        1.58815111792817
C           -9.05100411297335       -1.78868223759984       -0.45685959656942
C           -7.87396064632958       -3.08731297478709        1.30349101331619
H           -8.45550509565874       -2.22047585684156       -1.25892050458633
H           -9.90146232202682       -2.43446652659098       -0.25725464129669
H           -9.40541933568375       -0.80811556450725       -0.76360539937904
O           -6.58709742382062       -3.39156513238024        1.29191737966278
O           -8.72735299152404       -3.86062988795163        1.64811925319774
