42
 energy: -62.486133520082 gnorm: 0.000479152574 xtb: 6.7.1 (edcfbbe)
N           -0.70728666426315       -0.04908231947142       -0.43798569218343
H            0.10674786451196       -0.38823164255831       -0.93594026579175
H           -0.56359085664680       -0.23665420147389        0.55040513501124
H           -1.82542711285207        1.51967357746701       -0.40588650672730
C           -1.92254457118883       -0.71689379497180       -0.90036125587298
H           -1.91517302813776       -0.67194030031845       -1.99791060014679
C           -2.05569582670131       -2.17395099421194       -0.46115274731964
C           -3.09822539209897        0.14298772026907       -0.44576535873081
H           -2.16419426022328       -2.23530916679525        0.61945399747104
H           -2.92551902805003       -2.62690500731602       -0.92510872818219
H           -1.17141480158938       -2.73402680024651       -0.75980588200939
O           -2.79329539449342        1.43781597031561       -0.27966795950518
N           -4.21267567734626       -0.40315233110907       -0.25410713471938
H           -5.06958279910451       -1.98154273484262       -0.16688549396928
C           -5.46418414636464        0.24777886534603        0.08290789816589
H           -5.46823277729420        0.46312497731944        1.16000418323392
C           -5.66831704129049        1.55607824994930       -0.69843232819770
C           -6.52274402547253       -0.82156884218438       -0.17387659520234
H           -4.84496949901662        2.21675859176571       -0.42358923436182
H           -5.56876033543535        1.32395676470010       -1.76178922277248
C           -6.97955689230766        2.31775566750012       -0.48234625553046
O           -6.04751622704319       -2.07412007550215       -0.18983819837525
H           -7.77703542370095        1.79132906429798       -1.00879880983577
C           -7.34970295949827        2.43520433989205        0.99282960490948
C           -6.84540125073178        3.70929688087529       -1.10137505122867
H           -6.53619564726613        2.88982416836068        1.55518548485198
H           -8.23256490443377        3.05998264475711        1.10685981684038
H           -7.56747667798620        1.45792145604872        1.41514073483735
H           -6.56403272038066        3.63806378939966       -2.14935737037958
H           -7.79006538333112        4.24354681331138       -1.03717557228187
H           -6.08611385307271        4.28933513950661       -0.58035302504825
N           -7.73365486557916       -0.53265088415488       -0.37757564294616
H           -9.21372673069551        0.61524480305950       -0.37996590128599
C           -8.70045123817479       -1.58543182484911       -0.61835512367463
H           -8.35354234119904       -2.28236383143776       -1.39088565085145
C           -9.01756207100097       -2.37981373264848        0.65597630327584
C          -10.00366181838259       -0.92506803368002       -1.07950892538213
H           -9.34283993457844       -1.70401410090298        1.44518951437695
H           -9.81126013873661       -3.09217336678424        0.44858857904916
H           -8.13114713458653       -2.91390463351187        0.98774530429333
O          -10.08072442318481        0.36470997033546       -0.76952987789189
O          -10.88687325201299       -1.52361672126757       -1.62802113941088
