42
 energy: -62.486133516870 gnorm: 0.000479483905 xtb: 6.7.1 (edcfbbe)
N           -0.93598041243086       -0.34789048044701       -1.17816156670575
H           -0.15529075638761       -0.95394132693872       -1.39898268643550
H           -0.59895737926726        0.36233068747376       -0.53367430516571
H           -2.32343279462902        0.59898221319026       -2.07498268978451
C           -2.02701360212948       -1.09953891989750       -0.55946174203919
H           -2.17799721220463       -2.00531287771486       -1.16218538214267
C           -1.78748367858823       -1.49884660151257        0.89372516984938
C           -3.29184488793114       -0.25437787137230       -0.70925618519628
H           -1.60339258911524       -0.61370613752589        1.49904769808938
H           -2.66919206395816       -1.99804799687019        1.28068281175564
H           -0.93098621646942       -2.16568456968142        0.96891089093341
O           -3.23992607329877        0.62432556689512       -1.72841019669195
N           -4.24846865174728       -0.46816740177338        0.07535899811024
H           -5.20017395182060       -1.40807524941970       -1.67722625820037
C           -5.53192566577675        0.18842482591070        0.10837829045207
H           -5.78644157234425        0.25346952950884        1.17085616895926
C           -5.58999261117346        1.59759136747811       -0.51606699977148
C           -6.56371279876881       -0.70694139542918       -0.54806257490849
H           -4.75913749846276        2.17283533405102       -0.10062432233273
H           -5.42916866376705        1.51529953478923       -1.59276828889297
C           -6.89761325175025        2.35596008187852       -0.27023703713793
O           -6.15452156307614       -1.50368542012037       -1.55164493048699
H           -7.72722237935086        1.75822246753397       -0.65848640149770
C           -7.14200458432717        2.62434303459464        1.21247822488706
C           -6.85874288406657        3.67820910068970       -1.03621030340816
H           -6.30881304709438        3.17813107163667        1.64103294586639
H           -8.04628016217384        3.21456290459982        1.33841637970972
H           -7.26638984533333        1.69856878935611        1.76725392560732
H           -6.71094313602960        3.50578389742112       -2.09980497368288
H           -7.79291291685422        4.21843519030799       -0.90475970741382
H           -6.04594631757232        4.30468989376005       -0.67393917277494
N           -7.76404329463174       -0.62630547241047       -0.17376189899601
H           -9.08494639458877        0.28053442809095        0.70226138192258
C           -8.80996827843527       -1.40336256386789       -0.80050089745337
H           -8.70431704374637       -1.43051412647872       -1.89251893696355
C           -8.83504409307995       -2.84134338377083       -0.27043783415148
C          -10.14740937828126       -0.73571938316320       -0.44779795001320
H           -8.89655356902243       -2.83488012351507        0.81595035550012
H           -9.70144670504938       -3.35757700781926       -0.67416272379352
H           -7.92948825811207       -3.36223511581304       -0.57101166847033
O          -10.04292943248583        0.20373782084477        0.48433033275136
O          -11.18813564948002       -1.05031007966896       -0.95461088554139
