42
 energy: -62.486133502927 gnorm: 0.000481215231 xtb: 6.7.1 (edcfbbe)
N           -2.23076652979572       -1.42939391282942        1.55868763172341
H           -1.67984302275287       -0.62457352785210        1.83691484143616
H           -1.62478590896226       -2.24081707763160        1.55697270951942
H           -4.01230063768298       -1.03449311137016        2.18880045857880
C           -2.83070924695382       -1.22227072658637        0.24265756386338
H           -2.16940232631845       -0.72440379818313       -0.47943227714280
C           -3.28771440280469       -2.56439683363602       -0.33192117642796
C           -4.06965776627921       -0.36713464183726        0.44103051072448
H           -3.94478701378721       -3.06698470584874        0.37485651360190
H           -3.82556295004975       -2.39775952526095       -1.26040275583677
H           -2.43034338976800       -3.20420212376665       -0.53066938325287
O           -4.62449488669587       -0.47895142129431        1.65942310151822
N           -4.46481883512716        0.36854026157764       -0.49786312595717
H           -7.55727693880026        0.99694448406572       -2.09968706204258
C           -5.72250490899734        1.08702081775655       -0.42781891277044
H           -5.83190910265297        1.54629004625093        0.56756166690691
C           -5.70117673965257        2.17765933837604       -1.50187486650359
C           -6.86723138226750        0.09128285944829       -0.54980602349690
H           -4.70888562718790        2.63083388813038       -1.47053580390632
H           -5.78818609577244        1.71607548261086       -2.49046205742334
C           -6.76042874692605        3.27430276015404       -1.30396266140355
O           -7.76191980037867        0.22983594367934       -1.55013314204827
H           -7.70271847494704        2.82520987083536       -0.96645802567978
C           -6.31345866739570        4.27028248375900       -0.23547350435146
C           -7.01580764795059        4.00606324123332       -2.62140106740375
H           -5.40450020884916        4.77873125615634       -0.54975310226603
H           -7.08475678338372        5.01845612697354       -0.06774244121306
H           -6.11710889760125        3.76848296931659        0.70868441460584
H           -7.39777124735064        3.33011946350959       -3.38469043027338
H           -7.74408272233267        4.80094932443194       -2.47936045708160
H           -6.09332974827797        4.44966909521745       -2.98952566679144
N           -6.92740556761731       -0.84794603059197        0.28323677377428
H           -6.32591706326950       -1.55172930064568        1.86502057357607
C           -7.93661089500020       -1.87582930626107        0.25082316239632
H           -8.94663913745304       -1.45004533493894        0.18794464750847
C           -7.74108225379147       -2.85135450092332       -0.91516232283289
C           -7.81578556201201       -2.66112868250526        1.56742471588828
H           -6.72495207639806       -3.24131580425452       -0.90504969527018
H           -8.44036680929852       -3.67603726139082       -0.80966970879898
H           -7.91701945701597       -2.34452700877175       -1.86027246770329
O           -6.78106141187726       -2.30846581968905        2.31486762075558
O           -8.58111036628892       -3.53501510993287        1.87315649558767
