42
 energy: -62.486133520482 gnorm: 0.000478806262 xtb: 6.7.1 (edcfbbe)
N           -1.48022240825316       -0.64008254716532        0.62531288217162
H           -0.73377155016446       -1.31616163677195        0.51653391133258
H           -1.57536394766282       -0.44982043690195        1.61899912256528
H           -2.09201728930347        1.00113454682136       -0.17467151449629
C           -2.74096135469447       -1.17253830842419        0.10643096201094
H           -2.53399213593165       -1.55449614334997       -0.90237570110975
C           -3.36341660489482       -2.28307049097263        0.94603991546435
C           -3.68597112248092        0.01173601774903       -0.06756318179920
H           -3.58528400955275       -1.91971227207751        1.94598234537561
H           -4.29137352985615       -2.60640382011720        0.48987894418058
H           -2.68334004003494       -3.12951860335490        1.01741313487930
O           -3.04640996582003        1.18104671698839       -0.29740484290649
N           -4.91807877633246       -0.18734230708966        0.01710245255120
H           -7.85248121543689        1.16823886335082       -1.78029079056673
C           -5.99013153086788        0.76008249666667       -0.16124652919632
H           -6.17884755398584        1.20988028884689        0.82451123335491
C           -5.75786249016898        1.88574494027753       -1.18458679944306
C           -7.20916263305882       -0.09924126276194       -0.48377392962173
H           -4.71288943774721        2.18565413241697       -1.12805415264674
H           -5.91307739511658        1.49256335784618       -2.19525098526683
C           -6.62380757496883        3.13363983939939       -0.93776300620553
O           -8.11078863633542        0.32223339959433       -1.39292682125660
H           -7.63123292888080        2.84133102347782       -0.61372381767486
C           -6.01542037751143        3.99280388450336        0.16913048248882
C           -6.74553947863107        3.95201772950436       -2.22294950533021
H           -5.02964232241576        4.34464530237914       -0.12641753759898
H           -6.64455604131092        4.85695560842881        0.36981143989661
H           -5.91219403702419        3.42622907345672        1.09138423377821
H           -7.22273886602522        3.37956361222969       -3.01691932117821
H           -7.33789277763932        4.84727028719588       -2.04906666406293
H           -5.75987730677898        4.25635655406946       -2.56792993138465
N           -7.32624630399919       -1.17928664747138        0.14661543919276
H           -6.59341611211158       -2.27383540787991        1.31619683137760
C           -8.39731349709451       -2.12580465790433       -0.02872051253366
H           -9.37318156679958       -1.66718457321266        0.17705483338076
C           -8.43289289556586       -2.75458669935589       -1.42545932172357
C           -8.15363953311460       -3.24062548540201        1.00684662605986
H           -7.44956001781473       -3.14579834183894       -1.67841244337894
H           -9.15231836079892       -3.56857741771145       -1.43029044359966
H           -8.72051861272743       -2.01212508524095       -2.16468687916305
O           -7.00448162511239       -3.11234778493257        1.65393377650833
O           -8.92427743134030       -4.14259365000562        1.19024136646341
