42
 energy: -62.486133510007 gnorm: 0.000480472411 xtb: 6.7.1 (edcfbbe)
N           -0.72546530628365       -0.10536802940780       -0.01486743269750
H            0.14699194904837       -0.36806601850225       -0.45726185586464
H           -0.71564470081178       -0.48144597505556        0.92925832734656
H           -1.85658671943681        1.46139313726711        0.18812747142907
C           -1.86897276159892       -0.64137874363522       -0.75111862645199
H           -1.72381012816976       -0.37203666803022       -1.80642587098518
C           -2.04755561512907       -2.15428898750366       -0.63966379993947
C           -3.09477462999388        0.12840910756605       -0.27534339139601
H           -2.29634017982660       -2.43131927833555        0.38206633532557
H           -2.84693750111428       -2.48789366400741       -1.29284059146124
H           -1.12795026877488       -2.65911154829388       -0.92994580245753
O           -2.83014048982613        1.36400587476862        0.17140055109323
N           -4.22368934875929       -0.42309600075359       -0.31059521078314
H           -5.12639187770078       -1.84071155418706       -0.91025112877136
C           -5.48147543360090        0.21717068666988        0.01701901312268
H           -5.53570414811389        0.41580186551602        1.09267620480900
C           -5.64434828938198        1.54234729009836       -0.75669801470598
C           -6.55582804647366       -0.79379530179576       -0.36270569893143
H           -4.82700012680086        2.19617021722907       -0.44933079641355
H           -5.51486844541917        1.31984432405638       -1.81979517785254
C           -6.96299247132115        2.29422282655992       -0.56525766447333
O           -6.10618285364461       -1.93107061196995       -0.90159304863064
H           -7.77446319257373        1.68870130067971       -0.97456824836627
C           -7.24910386624541        2.57991814530646        0.90603689506127
C           -6.90303557004413        3.60463724591854       -1.34987599234419
H           -6.42881258485490        3.14140814507626        1.34950474596239
H           -8.15847738373902        3.16808706846638        1.00223302932626
H           -7.38097062574494        1.65617277558001        1.46277808386073
H           -6.70565822286382        3.41634245011107       -2.40270047402016
H           -7.84878585586074        4.13438422721974       -1.26968594409266
H           -6.11499609701649        4.24728331404654       -0.96196110746803
N           -7.77677676742554       -0.52604544702576       -0.18671703275369
H           -9.13737878031082        0.59821679914235        0.32581107113021
C           -8.80787399527805       -1.46898600877661       -0.56559894976758
H           -8.65441165225482       -1.84682609327963       -1.58439034400337
C           -8.88325320099688       -2.66297689051444        0.39392812226311
C          -10.15109566787546       -0.72970304928316       -0.50731872007873
H           -8.98929108630156       -2.31013087922842        1.41811097745651
H           -9.74356306496512       -3.27476983504333        0.13732280906498
H           -7.97808276177187       -3.25916668630867        0.31483541877259
O          -10.08421864260594        0.44958087891816        0.09923166489342
O          -11.17027484730116       -1.18793628594019       -0.94489478840908
