42
 energy: -62.486133515200 gnorm: 0.000479668137 xtb: 6.7.1 (edcfbbe)
N           -1.20161677465329       -0.31715696242864       -1.68570930822877
H           -0.55528279357153       -0.91588956571739       -2.18504445509905
H           -0.67980825279579        0.15199954844182       -0.95053171819377
H           -2.59236594928287        0.95103397929483       -2.08392696501225
C           -2.29302799027147       -1.09413230957117       -1.10089754652333
H           -2.67513008446255       -1.75860915515637       -1.88733397022441
C           -1.90146818637832       -1.93056487367455        0.11444360452411
C           -3.42248149378534       -0.11525954118619       -0.78544219180711
H           -1.53478958964653       -1.28710055572862        0.91147476594819
H           -2.77007832934457       -2.46834619400196        0.47832781231574
H           -1.12443016949830       -2.64446063833116       -0.15183298671447
O           -3.40669341305619        0.99242947020050       -1.54192035383699
N           -4.24705069035497       -0.42795369021048        0.10705414280499
H           -5.67998319766409       -1.69033356993031        1.80172519877514
C           -5.42722527058605        0.30488882482642        0.51810487913939
H           -5.28992837558444        0.50902476071239        1.59051319509522
C           -5.76623113800221        1.60484147717946       -0.21420911564989
C           -6.51454156790682       -0.74316524057219        0.37438729409030
H           -4.91086250380207        2.27792202593745       -0.14750684587365
H           -5.92557225998045        1.36858795593485       -1.26594265202060
C           -7.00724037945494        2.30986716150163        0.34610118483837
O           -6.48773970082939       -1.74668386052259        1.27528796267905
H           -7.80100341529470        1.56883267933048        0.48135848464705
C           -6.71824654299351        2.97169451180134        1.69220931377242
C           -7.49113368651909        3.35895069663300       -0.65331513258157
H           -5.91923667012480        3.70353159142925        1.59041113459722
H           -7.60498112142486        3.48408075355400        2.05860329722764
H           -6.42201565727788        2.24086815275531        2.44097304194751
H           -7.76380965567237        2.89438016734455       -1.59757204198373
H           -8.36200294514994        3.88266020320851       -0.26576075657165
H           -6.70785025742262        4.08973867043083       -0.84295853357077
N           -7.29881094573414       -0.71487688121139       -0.60770334443412
H           -7.79233738428120        0.01242613759485       -2.17514318481346
C           -8.28668860370697       -1.74137812258260       -0.84191301366463
H           -7.86194457422586       -2.74770397926388       -0.73602552150031
C           -9.48393906144926       -1.60811679260795        0.10588080638106
C           -8.78747188539066       -1.55629302012896       -2.28312258738703
H           -9.89811256945775       -0.60352473210478        0.04283358798086
H          -10.24826411470424       -2.32560820507982       -0.17877733545517
H           -9.16944238242148       -1.80002516386394        1.12865651986630
O           -8.38086563173474       -0.42186170437126       -2.83877617141750
O           -9.49448604760018       -2.35073983225340       -2.83804535860447
