42
 energy: -62.486133510494 gnorm: 0.000480026636 xtb: 6.7.1 (edcfbbe)
N           -1.27099234510343        0.28141642717889       -0.61681728518682
H           -0.30403880537895       -0.01703852052878       -0.54358115672127
H           -1.57696552273749        0.59540761748946        0.29809402873110
H           -3.75543404183191       -0.45962151999656       -2.85326212746566
C           -2.10888652410245       -0.82504921582831       -1.04690451380255
H           -1.86684097268252       -1.02456149885798       -2.10144740393945
C           -1.91156899113053       -2.11855651856342       -0.23899908025733
C           -3.55197813645288       -0.37744203627012       -0.93607255979927
H           -2.13952003833301       -1.93040111376467        0.80758642807788
H           -2.56456134537115       -2.90602305325818       -0.60855918884319
H           -0.88051636876824       -2.45613271785193       -0.32325544669607
O           -4.28463876033404       -0.29431577613049       -2.06317112161372
N           -4.00307785078932       -0.12249395461677        0.21332488042252
H           -4.98519953125923       -2.01660661317087        0.70145941490832
C           -5.37627239993525        0.31305670219951        0.40761132792397
H           -5.46955737219185        0.46541990825603        1.49300352929683
C           -5.71187197030176        1.62191579284935       -0.31739815115387
C           -6.31247850174289       -0.81822946677513        0.03703633377126
H           -4.81948040113755        2.25213259656811       -0.30543271987465
H           -5.94649592811791        1.38696909792158       -1.35538216350753
C           -6.88010617151139        2.38595268397098        0.31709007204428
O           -5.88444407124173       -2.06212675613280        0.34431204413164
H           -7.66132837257484        1.66667703974357        0.57922085110014
C           -6.44123209675522        3.12035599806948        1.58257941559533
C           -7.44984516020026        3.38595418930566       -0.68765811276494
H           -5.68620165875199        3.86680363495663        1.34383129770369
H           -7.28904733737142        3.62627330963339        2.03865238974541
H           -6.02344394272385        2.43495519518519        2.31588988388924
H           -7.81920466832333        2.88050747481947       -1.57647524379308
H           -8.27327781677323        3.94136993828344       -0.24520342610745
H           -6.68225311415641        4.09589794720876       -0.98917754918014
N           -7.42612876473379       -0.57941819404264       -0.49368084345186
H           -8.43449683627793        0.54612025994207       -1.48990325511479
C           -8.35020183352327       -1.62810649784298       -0.85549608080325
H           -7.83769004354565       -2.51102655042649       -1.25810851305598
C           -9.20632628459972       -2.05448652472505        0.34190840844263
C           -9.27851104384967       -1.05512208506345       -1.93777506948576
H           -9.68916437846242       -1.18418887089591        0.78196560001136
H           -9.96781665436649       -2.75353556984165        0.00799322794216
H           -8.58130721111321       -2.53126656735762        1.09304713981774
O           -9.15114881402236        0.25543202174080       -2.10319365708472
O          -10.05263917929096       -1.72889377910575       -2.55871640076117
