42
 energy: -62.486133519509 gnorm: 0.000478756638 xtb: 6.7.1 (edcfbbe)
N           -1.71535296047871       -0.59780928685822        1.24541988473061
H           -0.82087058227011       -1.05415651615964        1.11192370558998
H           -2.09007438176158       -0.92178954184149        2.13314538226325
H           -2.55438231592052        1.14700890733548        1.15489971563110
C           -2.64261979070145       -0.94670554504739        0.16875828778353
H           -2.10854059585279       -0.79987088376509       -0.77921307906482
C           -3.18745545020426       -2.37166392212890        0.22677927676546
C           -3.76762897234455        0.07533822920769        0.20314066527000
H           -3.67512230937477       -2.55028268256075        1.18249612690844
H           -3.92250991058796       -2.50616356928220       -0.55881053284590
H           -2.38268820625583       -3.09270078680515        0.09883890171298
O           -3.45328827690358        1.24936676414538        0.78290960479391
N           -4.88678294462670       -0.21589480612514       -0.28744760333770
H           -7.97099041435939        1.13968932119252       -1.73039078558862
C           -5.97743185811534        0.73616029912318       -0.27916248893423
H           -6.03768970932990        1.22773178793129        0.70385315897340
C           -5.78532168456776        1.81512959762034       -1.35788858059340
C           -7.23502825226846       -0.09800285877602       -0.45814160275252
H           -4.72283201356469        2.06288219144510       -1.38942847479847
H           -6.03509594270397        1.39411768580682       -2.33702645785772
C           -6.57553702611654        3.10771233689842       -1.08968305704191
O           -8.21424589743943        0.31812872606938       -1.28527131003685
H           -7.54997215759984        2.86560359562063       -0.64632927796871
C           -5.82241047049820        3.99251700285048       -0.09812274794704
C           -6.81067733206718        3.86746676078304       -2.39491973830349
H           -4.88612544145428        4.33341952772069       -0.53426508444933
H           -6.41745439138944        4.86391830199550        0.16517639969026
H           -5.59127232967803        3.44562172794494        0.81232304615787
H           -7.39349757466843        3.27757165720197       -3.10087924636105
H           -7.34770593439446        4.79341322264541       -2.20347210187749
H           -5.85975778056052        4.11497478726305       -2.86180918140220
N           -7.30223182686649       -1.15174615803700        0.22296017231402
H           -6.36794385134453       -2.28764454290391        1.18548959359291
C           -8.37940398591557       -2.10673785527140        0.19432775050486
H           -9.31002896754405       -1.66273455896368        0.56992504725229
C           -8.63959761181739       -2.70797669465166       -1.19084805040224
C           -7.96146112030041       -3.24269106470477        1.14897079243767
H           -7.70809209244698       -3.08488121686298       -1.60859932282600
H           -9.34507208047678       -3.52864198767963       -1.09460122838005
H           -9.04850978479580       -1.95430702651517       -1.85803001225236
O           -6.71244953852471       -3.13095266615354        1.58001496828867
O           -8.69103751375191       -4.14644409810341        1.45192275129543
