42
 energy: -62.486133517695 gnorm: 0.000479260969 xtb: 6.7.1 (edcfbbe)
N           -1.38270982118403       -0.42621237629086       -1.94447512380685
H           -0.67073093478154       -1.04167143222389       -2.31779375323844
H           -0.91200761043538        0.37736380753936       -1.53736403796948
H           -3.02339138791737        0.38602928173714       -2.46595448459265
C           -2.18413589610893       -1.10215418828181       -0.92651074247512
H           -2.44179434433617       -2.09435217287567       -1.31900679941011
C           -1.48841961115053       -1.25756671880698        0.42428693611369
C           -3.49686276500282       -0.33064233263355       -0.80117485093189
H           -1.21532317932533       -0.28044634028792        0.81784181402179
H           -2.15956477027175       -1.73342897258381        1.13084238437776
H           -0.58911285980167       -1.86155058625935        0.32053680934626
O           -3.78366419877767        0.44683807580488       -1.85000286103494
N           -4.19406081993203       -0.50251662763930        0.23221451582920
H           -5.33666951201578       -2.21420199386289        0.80566582669104
C           -5.49432024103356        0.10402433884164        0.46775502176081
H           -5.56388594496500        0.17790653738954        1.56409584248542
C           -5.74960179817758        1.48154781472252       -0.14664999357377
C           -6.50644799765523       -0.93818930298178        0.03614404719446
H           -4.84414927890766        2.08108892810833       -0.03146726007416
H           -5.93622757219172        1.35760160617148       -1.21275425114916
C           -6.92686227689130        2.22070936203219        0.50184401139786
O           -6.22566332391209       -2.20056216981742        0.41771089710239
H           -7.74721379306276        1.51090252944546        0.64190962703990
C           -6.54146888697179        2.80209170363183        1.86111589701159
C           -7.40218423463905        3.34191673448764       -0.42073796891955
H           -5.74111014896412        3.53090900322513        1.74783618008110
H           -7.39505445112345        3.30137976906371        2.31383976019119
H           -6.20403942734768        2.02743658172385        2.54551629662815
H           -7.73560535193985        2.94565862517855       -1.37658639730780
H           -8.23054417268485        3.88189794340645        0.03186948439148
H           -6.59408741095939        4.04726855183577       -0.60402539023463
N           -7.50799091979620       -0.61835348553752       -0.65241846961525
H           -8.33196463111192        0.59388474837839       -1.70039097627750
C           -8.47677747218244       -1.58656059782022       -1.10988325274923
H           -7.99673007682769       -2.49463295343286       -1.49663386971089
C           -9.45515274010218       -1.98090375562705        0.00165950079589
C           -9.27114732437297       -0.92054434951798       -2.24476466606848
H           -9.91173591676572       -1.08991613832437        0.42834709337575
H          -10.23317976013738       -2.61467673427272       -0.41445869888217
H           -8.92805718813445       -2.52016335113917        0.78472335053589
O           -9.02441693356289        0.37710637608161       -2.37032598124154
O          -10.05212427541591       -1.51634151884463       -2.93344033999172
