42
 energy: -62.486133508181 gnorm: 0.000480564457 xtb: 6.7.1 (edcfbbe)
N           -1.28314240084596       -1.35075446465216        0.92923991240166
H           -0.92838804292035       -0.61724654887486        1.53367802113740
H           -0.50537035265584       -1.94545170350674        0.67004869324178
H           -3.07207673117814       -1.55536012508191        1.60087413059834
C           -1.92659204803099       -0.78432408864358       -0.25432508048644
H           -1.42675198067132        0.11327406430699       -0.64412735250529
C           -1.99699967514133       -1.83345151727339       -1.36586720806947
C           -3.34304174943270       -0.40394076879360        0.14790301048160
H           -2.53792711805139       -2.71309779695307       -1.02213269359635
H           -2.50017713657965       -1.41617060263137       -2.23353721966556
H           -0.99449230128386       -2.13573894567634       -1.66167849081847
O           -3.81088116107929       -1.01982348530289        1.24211655134954
N           -3.98727074383043        0.42518388476643       -0.55153091788214
H           -4.90512044651802       -1.24696812625882       -1.47610916435273
C           -5.35831041186906        0.74954183160124       -0.20717844723436
H           -5.43547408768641        1.01999968439709        0.85224430635096
C           -5.74756070181172        1.94668006124787       -1.09451039647020
C           -6.27918069398309       -0.43070986505149       -0.44548987778297
H           -4.99843588404172        2.72089002051019       -0.91799484329304
H           -5.64927866701752        1.63055470872599       -2.13551028778860
C           -7.14425262783985        2.52954681786563       -0.87440850392148
O           -5.80489310911851       -1.45439102965172       -1.18025230353617
H           -7.88388369706693        1.74834462524019       -1.06873090245184
C           -7.33324484525588        3.03900231856644        0.55189422666706
C           -7.37656810881258        3.66650319499121       -1.86899173221835
H           -6.59268367487796        3.80224028353682        0.78326612624390
H           -8.32247778565809        3.47578112805740        0.66416035105992
H           -7.23648251862061        2.23124569319052        1.27196179382174
H           -7.26723407023962        3.31392152616216       -2.89191176102021
H           -8.37903417787272        4.07037743811927       -1.75246911140677
H           -6.66117756136708        4.46975250813155       -1.70439438262000
N           -7.47187343538500       -0.36685491977847       -0.04379438805942
H           -8.87349086898158        0.57427729920510        0.67106956326610
C           -8.41640144307167       -1.42876419351843       -0.30871821314301
H           -8.36178767928355       -1.77361261896967       -1.34941918430361
C           -8.19663960143259       -2.62814885895697        0.62046254011002
C           -9.82061913148350       -0.86789090243011       -0.04374836359832
H           -8.20663260151868       -2.29978553774923        1.65789263425642
H           -8.99174641799807       -3.35234446000655        0.46697485044864
H           -7.23701982261290       -3.09102940118076        0.40505393813644
O           -9.81675219595509        0.30750933883820        0.57310339837200
O          -10.82482354756189       -1.45079229518107       -0.34617812164415
