42
 energy: -62.486133512661 gnorm: 0.000479719318 xtb: 6.7.1 (edcfbbe)
N           -0.78471943773492       -0.43053907681024        0.26208630006609
H            0.12854409627276       -0.38159774346789       -0.17201566253177
H           -0.80716714007392       -1.27184978642826        0.83191637173589
H           -1.99073484973474        0.68405648907720        1.25207162999558
C           -1.84495780819394       -0.47790324339957       -0.74349189677301
H           -1.60329053575192        0.26357928103074       -1.51475617462660
C           -2.03782639011714       -1.84155609402064       -1.40527980719790
C           -3.12628935290922        0.00116373146949       -0.07472801699236
H           -2.22322719965076       -2.60443275892374       -0.65042444309097
H           -2.89109502876183       -1.79900900791513       -2.07409063854225
H           -1.15104957364841       -2.11891126838134       -1.97121936697708
O           -2.95238397546915        0.68342402892798        1.06844318693878
N           -4.23564684521674       -0.23248917751711       -0.62206121953831
H           -5.06920988281695       -2.09376941142012        0.13083380739196
C           -5.47346109063941        0.23261139207110       -0.02505173671901
H           -5.34971747584979        0.38783973436067        1.05914889788150
C           -5.91095739539748        1.54972324271729       -0.67657320006180
C           -6.48179845577296       -0.87948301325523       -0.21657002645385
H           -5.03007783341482        2.18833540262345       -0.77225599740593
H           -6.27233724799098        1.32228247189968       -1.67963580414961
C           -6.98906493205893        2.29454188239608        0.11993686475310
O           -6.03499343165659       -2.12091993925907        0.06673795086352
H           -7.71545615681272        1.56303351138696        0.48481831173996
C           -6.38095860577421        3.02501836765318        1.31596979377669
C           -7.70960870522034        3.29325303912993       -0.78387826776003
H           -5.69398354332791        3.79790964672542        0.97675473205950
H           -7.16101215047848        3.49727279532619        1.90861264707265
H           -5.83245326294474        2.34261258463482        1.96040117799302
H           -8.19910272696047        2.78876781725431       -1.61309684646943
H           -8.46563297753385        3.83586855569022       -0.22138705118478
H           -7.00235976100087        4.01435416990103       -1.18876119964996
N           -7.63635269421564       -0.64023945029001       -0.65362609987000
H           -8.76787520023037        0.48099168537850       -1.51047728549730
C           -8.60799165346794       -1.68623813206912       -0.87064827895646
H           -8.15791892410326       -2.57460957840243       -1.33203753968886
C           -9.29265207024987       -2.10208627526813        0.43594944915696
C           -9.67574960992306       -1.11789688737341       -1.81797399608911
H           -9.70730559171643       -1.22741382569660        0.93335734555174
H          -10.09571762061590       -2.79917654309714        0.21394147540786
H           -8.57166588471222       -2.57771859083831        1.09610895440154
O           -9.56597486016453        0.19044776779120       -2.01305985288444
O          -10.53495747616308       -1.79127364893152       -2.31505348169629
