42
 energy: -62.486133518208 gnorm: 0.000479446944 xtb: 6.7.1 (edcfbbe)
N           -1.13184265810022       -0.44333089474574       -1.67880273790492
H           -0.37004853707346       -1.06241707259224       -1.92663296934373
H           -0.72747176448286        0.38405362857423       -1.24809793407293
H           -2.69674036285742        0.31059426266909       -2.45161742416919
C           -2.05521554174093       -1.08846306121868       -0.74747237083983
H           -2.25454830822014       -2.09656252021250       -1.13643390455237
C           -1.54433677165328       -1.19378653884952        0.68804622025916
C           -3.37575417776999       -0.31994659848891       -0.82087725832894
H           -1.30233438641879       -0.20460065987677        1.07123194719100
H           -2.31478583234818       -1.62342046534889        1.31901258077185
H           -0.65394280479393       -1.81775518660774        0.73019607342174
O           -3.53238737961357        0.39020878918463       -1.94465030569257
N           -4.18428959003983       -0.43732385201076        0.13735868454259
H           -5.10334523649986       -2.07548559029704       -0.49820900921966
C           -5.50446304464901        0.15665047494409        0.22551920906343
H           -5.69721683595141        0.22258195330380        1.30443165286622
C           -5.59765617864268        1.56688491760951       -0.38213680751698
C           -6.51874415185862       -0.82554433036789       -0.33799165445817
H           -4.75689247070896        2.13221533077329        0.03078556676014
H           -5.45224352962114        1.49505203943669       -1.46007975494386
C           -6.88962299226796        2.34795712769256       -0.12444954250306
O           -6.05106252632553       -2.03271623369128       -0.70855841376866
H           -7.68720678064851        1.89414538986187       -0.71593500817512
C           -7.30208835711071        2.34828189653829        1.34470636426193
C           -6.69866859784793        3.78422194043860       -0.61274549232081
H           -6.48988354155992        2.71440658480065        1.96990960276534
H           -8.16181097735686        2.99854533779762        1.48821681401464
H           -7.57532329717569        1.34929165726328        1.67361012212442
H           -6.39442319406404        3.79833446965742       -1.65663915836642
H           -7.62740520009156        4.34159346599776       -0.52005148854012
H           -5.93488706624827        4.29036296371186       -0.02534301959137
N           -7.73760581835370       -0.51355720390138       -0.40860393384813
H           -9.17021216778751        0.63053757875344       -0.10888136048829
C           -8.71799555810373       -1.44679464965520       -0.92336036767769
H           -8.39781093710255       -1.88330594129188       -1.87710982195962
C           -9.01313009644091       -2.58290403955034        0.06477476317491
C          -10.02426782810325       -0.67232501741953       -1.13963613870261
H           -9.29863305197546       -2.17123850751802        1.03115742744419
H           -9.82982462525439       -3.18759148201692       -0.31958458436752
H           -8.13133427540684       -3.20550962547090        0.19002589653313
O          -10.05618502578694        0.49933678728510       -0.51564906129347
O          -10.94254993484929       -1.10270272620421       -1.78049830592031
