42
 energy: -62.486133484070 gnorm: 0.000483364081 xtb: 6.7.1 (edcfbbe)
N           -0.90911146288051       -0.53813186702349       -0.19908657078060
H           -0.09643777338948       -0.83561399431224       -0.72586773236199
H           -0.92637512051596       -1.07755253585995        0.66258753502948
H           -1.83122259892122        1.09286311303197        0.36082751433633
C           -2.13707533881021       -0.78451731454068       -0.95678485728102
H           -1.98488068019350       -0.36763502564570       -1.96110657300957
C           -2.54098802196662       -2.25094881142905       -1.07779050531407
C           -3.23767878498981        0.04037389553397       -0.31089665644542
H           -2.62765100627808       -2.69766427776754       -0.08946257616200
H           -3.50918177848997       -2.31058197925501       -1.56281180415564
H           -1.80412304161138       -2.80539885732668       -1.65536148363962
O           -2.80741880626553        1.13275548611229        0.35847571119553
N           -4.43568617997937       -0.31114322588644       -0.43411412865844
H           -7.09258765116896        0.47416089804427        1.94703014803252
C           -5.50256215466150        0.48698759031442        0.11164730587021
H           -5.22791290420794        0.88735929117708        1.10179055057958
C           -5.80312076405914        1.65462032903393       -0.85108856268476
C           -6.73040664430006       -0.38213077333923        0.22768296317638
H           -4.89052257205172        2.24493612696571       -0.95491614021751
H           -6.03412564584613        1.20318023090861       -1.81720412660418
C           -6.95464542717804        2.56927141272331       -0.42152964787743
O           -7.49614986676913       -0.18567179869400        1.37011336551406
H           -7.82868885737087        1.95791177888257       -0.17120898871893
C           -6.57791569677297        3.42568230220308        0.78681640679233
C           -7.34173249966410        3.47280818402170       -1.59111980860868
H           -5.73525137513264        4.06829676302771        0.54063476101017
H           -7.41513300216405        4.05558851167960        1.07921752155641
H           -6.29694937029947        2.81984496550144        1.64592331730241
H           -7.66912895761729        2.87780751945654       -2.43984789407560
H           -8.15350278627590        4.13780611579862       -1.30597635759698
H           -6.49244292593342        4.07852265788580       -1.90017145584557
N           -7.00867746765557       -1.19343974135458       -0.67641049855150
H           -9.10461583689801       -0.32373558629227        0.56449799590682
C           -8.12291281006422       -2.10139024122052       -0.73402038745627
H           -7.93317113965237       -2.73751217211626       -1.60629290062471
C           -8.28280506101074       -2.98924844958236        0.50816438166855
C           -9.45539747427161       -1.38340977912188       -0.99921392861307
H           -8.52792755276119       -2.40180400029974        1.39042198395333
H           -9.07382827250228       -3.71496730976167        0.33563329049821
H           -7.35042114474095       -3.51794328962870        0.69242556590971
O           -9.78304391229765       -0.42713415507560       -0.12974544720561
O          -10.17278088592434       -1.67522763299779       -1.91292613060017
