42
 energy: -62.486133508977 gnorm: 0.000480301042 xtb: 6.7.1 (edcfbbe)
N           -0.76949944644557       -0.01325780199106       -0.05273997354697
H            0.11365448415066       -0.18296736661397       -0.51841944544864
H           -0.72638906648421       -0.46309075790962        0.85770417520293
H           -1.99700284622968        1.46177076390273        0.30039885144376
C           -1.88360133622461       -0.55919945614442       -0.82567815648763
H           -1.75422122521687       -0.22152444380435       -1.86262194257423
C           -1.99457277711098       -2.08257949669993       -0.80788832218772
C           -3.14873026034350        0.11028044394363       -0.31052440271978
H           -2.12653403019371       -2.44001792689321        0.21170915377648
H           -2.84956550168477       -2.39237005946630       -1.39957368860059
H           -1.09437825121443       -2.53076067391741       -1.22365738430435
O           -2.96222665937173        1.31071451803578        0.25606982136904
N           -4.26139290608341       -0.46169373082873       -0.44876627941936
H           -5.09749126794788       -2.12304452085783        0.12539805919818
C           -5.49815835473439        0.15467107230301       -0.00428297043782
H           -5.39903368213043        0.46122090309281        1.04799516170186
C           -5.88656404585766        1.37925259431036       -0.84428414558261
C           -6.53851215882183       -0.94712099713466       -0.07586426883481
H           -4.98387336457630        1.95636082216282       -1.05104888865557
H           -6.28635757734497        1.02114912360475       -1.79397507872676
C           -6.90973196379619        2.28942714203516       -0.15371720290032
O           -6.06992318459357       -2.18086928792626        0.17510004480324
H           -7.65666340062476        1.65953332071806        0.33741543395023
C           -6.23691645759273        3.16836798973180        0.89888088602650
C           -7.60954766468667        3.16702567905087       -1.18980454201609
H           -5.52398015875400        3.84238188860164        0.42833574293782
H           -6.97834780470627        3.76544350437757        1.42461139601133
H           -5.70226518599911        2.56937702510976        1.63176135112487
H           -8.13905143891341        2.56237849522740       -1.92183440274000
H           -8.32914149444962        3.82339707808040       -0.70648520681747
H           -6.88267833322256        3.78448233513689       -1.71397981474341
N           -7.72777972628261       -0.69426524118547       -0.40285401855312
H           -8.90264235058303        0.40252061900496       -1.23897014105019
C           -8.72380009353402       -1.73552422262350       -0.50810506197423
H           -8.31571436780022       -2.65175297185811       -0.95436131711779
C           -9.32459729708445       -2.07857357111368        0.85936193809371
C           -9.84420637871220       -1.19807938246771       -1.41048061893407
H           -9.69911731596198       -1.17589637550871        1.33819753198040
H          -10.14536785198389       -2.77766832533149        0.72586358839739
H           -8.56493474848332       -2.52814917207311        1.49408298530334
O           -9.73374932473976        0.09820743589903       -1.67531242677977
O          -10.74158444708183       -1.88158286445592       -1.81872144779608
