42
 energy: -62.486133510216 gnorm: 0.000479897954 xtb: 6.7.1 (edcfbbe)
N           -2.28201385805713       -2.05489236898799        1.24984516556264
H           -1.31833172100182       -2.34053873192615        1.37024432141703
H           -2.82342697239861       -2.88574185179313        1.02778497409763
H           -3.64877362238418       -1.03404421940766        2.12946603944195
C           -2.41159645477590       -1.07406329502668        0.17414824032916
H           -1.61196635459751       -0.33412792536261        0.30457083017531
C           -2.33001054077896       -1.65948482024642       -1.23472536238057
C           -3.72809237647475       -0.34036560089026        0.39050422692043
H           -3.11261512153689       -2.40256677464524       -1.37671672383595
H           -2.47064366843791       -0.86707028386872       -1.96196918857552
H           -1.36199817460819       -2.12965816933299       -1.39662265588626
O           -4.24596077672516       -0.44757838021430        1.62093776747827
N           -4.23071106586397        0.32757961750863       -0.55164029623179
H           -6.00925306539698       -0.03431409931332       -2.43727748216411
C           -5.49422145717436        1.01945449778755       -0.34856420168355
H           -5.60259916768760        1.34466457550979        0.69198217238277
C           -5.57233442227380        2.21440677847538       -1.30339261781566
C           -6.55588631723981       -0.02080340194330       -0.61436310740750
H           -4.86734583936808        2.97002798424900       -0.95196036379231
H           -5.23131085658517        1.90285151619484       -2.29505622502205
C           -6.97290789002220        2.82956809344446       -1.40801969916586
O           -6.66601070663488       -0.47180889224783       -1.87975292123593
H           -7.67127940537408        2.06685344597627       -1.77148161879688
C           -7.47114704271954        3.32482512978489       -0.05236848826484
C           -6.95010390967460        3.97891238109532       -2.41444617743078
H           -6.75575474363939        4.01766211925194        0.38557640013478
H           -8.42066944951943        3.84187044175157       -0.16957953850822
H           -7.62080651685238        2.49535423260070        0.63346247441422
H           -6.60861465988232        3.63662173826164       -3.38910145898429
H           -7.94495059356843        4.40168225833157       -2.53091177206423
H           -6.28110704982751        4.76614093225194       -2.07352304885991
N           -7.20859868292442       -0.48827063138197        0.35424756858850
H           -7.65330094415224       -0.44891359425562        2.10811216548389
C           -8.16589783308584       -1.55999251926145        0.20089753358167
H           -8.86653349772165       -1.36609702703979       -0.62062283124127
C           -7.47958975629762       -2.90942144983845       -0.04010691474708
C           -8.95229336620462       -1.64927038227824        1.51808877427814
H           -6.74903221175216       -3.09541124809265        0.74522253136741
H           -8.22562906656978       -3.69894981415443       -0.02734987905224
H           -6.97508327345410       -2.90261950341357       -1.00307813575242
O           -8.42792819679649       -0.92212658861542        2.49565315279751
O           -9.92986062247399       -2.33236998953078        1.65082143927928
