42
 energy: -62.486133532158 gnorm: 0.000477205131 xtb: 6.7.1 (edcfbbe)
N           -0.71140400343699       -0.09051842587507       -0.12102506315064
H            0.14676192042538       -0.36978687578934       -0.58077950304289
H           -0.67550072005875       -0.43955046373169        0.83277695752560
H           -1.83549210131766        1.49030643773196        0.05586727673567
C           -1.87765241989101       -0.64253079660272       -0.80808447132639
H           -1.76469353325567       -0.40009138033903       -1.87384018199004
C           -2.05544680791680       -2.15239253134145       -0.65539834614481
C           -3.08783628468195        0.14220710776660       -0.31682966367730
H           -2.27217950212329       -2.40521799609884        0.38009553326110
H           -2.87538121932883       -2.49771724255212       -1.27667587498789
H           -1.14664059189564       -2.66679856592640       -0.96235306244652
O           -2.80884237177007        1.39292672854506        0.07715068552319
N           -4.21485213379370       -0.41334626267615       -0.29571836898641
H           -5.09052638497152       -1.93230109801915       -0.60032588534753
C           -5.47030567816731        0.22318514385529        0.05040486310475
H           -5.49905863439220        0.42951002731875        1.12690815078061
C           -5.64845234093938        1.54222161282261       -0.72754809826682
C           -6.53841409969067       -0.81610755797762       -0.27517323844062
H           -4.83497120348200        2.20214605401537       -0.42258855657576
H           -5.51613467853202        1.31589249315179       -1.78914510662119
C           -6.96971588957043        2.29261200494198       -0.54588452380226
O           -6.06992707742692       -2.02700721407265       -0.59592256419182
H           -7.76685660954947        1.71151635556082       -1.01283807228088
C           -7.30783136186593        2.51390290687408        0.92522109616403
C           -6.87701526571998        3.63616777716552       -1.26926444638559
H           -6.50110403852191        3.04810596668463        1.42384824976462
H           -8.21578681490496        3.10550360489386        1.01484404415980
H           -7.46652700929231        1.56634372737821        1.43296598901634
H           -6.63242327047378        3.49304542765684       -2.31924268069882
H           -7.82686761281662        4.16143571463403       -1.20896162470896
H           -6.10876635631310        4.26215514420627       -0.81948433161362
N           -7.76440437179603       -0.51673598472223       -0.26390917351776
H           -9.17968626358774        0.63419900636945        0.07031581739865
C           -8.77007934675170       -1.50658582228192       -0.58983019195454
H           -8.54095976264667       -2.01683581326896       -1.53370763827788
C           -8.92850875386173       -2.56163415464382        0.51264481321241
C          -10.11037427197947       -0.77456394216309       -0.72898692871990
H           -9.11969988857726       -2.07587379637949        1.46783779068096
H           -9.76516264107676       -3.21070988646657        0.26994139479508
H           -8.02131024725710       -3.15482122399442        0.59023107480543
O          -10.10155675495804        0.45278405836912       -0.22145077726477
O          -11.08460486193191       -1.27706614647259       -1.21715035339148
