42
 energy: -62.486133514193 gnorm: 0.000479555131 xtb: 6.7.1 (edcfbbe)
N           -0.65056692565598       -0.63508896360569       -0.08718923347593
H            0.07114020006365       -1.23867036405667       -0.46968201384283
H           -0.63168264796011       -0.72652669658248        0.92463291688274
H           -1.12214244075294        1.14855494732052       -0.50801784661026
C           -1.99573437230781       -0.94917349309453       -0.57949596968410
H           -1.89817789359838       -1.09587636142663       -1.65862289093429
C           -2.58367928194886       -2.22013129967265        0.03698552379375
C           -2.83396784727498        0.35253674975877       -0.38688303540010
H           -2.82174428099145       -2.04747298410715        1.08162080152336
H           -3.48086455296644       -2.56647129009954       -0.46722160080527
H           -1.85402185922448       -3.02823639210866       -0.02062310752623
O           -2.04956126237209        1.45380871287643       -0.52190861962131
N           -4.05461260728271        0.47969612773193       -0.19772878516353
H           -4.74173696714583       -1.24667504496401       -1.35557071947554
C           -5.42085337158154        0.57156328676748        0.01163744324937
H           -5.63694958564229        0.78729418526630        1.04307215600435
C           -5.89333263060155        1.76982315269029       -0.87301219932368
C           -6.26487003810825       -0.62646583344885       -0.39393732594830
H           -5.09998094994177        2.51438718186150       -0.77422245540106
H           -5.88047266329221        1.40717049941756       -1.90874762230082
C           -7.24914336456341        2.39045628558875       -0.56057665410783
O           -5.66803981919457       -1.51359054553268       -1.22191980468708
H           -8.03351138156996        1.68340690691331       -0.84295972137254
C           -7.38680857236231        2.72755348163272        0.92193221516189
C           -7.39328342797493        3.64909459162697       -1.41090009162489
H           -6.55295059835277        3.34549983247767        1.24764458767651
H           -8.31150242817628        3.27153273648373        1.08641033946920
H           -7.41242129893928        1.83000746361715        1.53495265351370
H           -7.26169957861855        3.41554949189437       -2.46463617051815
H           -8.37709351826034        4.08022637143035       -1.27128303161898
H           -6.64020958635597        4.38083419087756       -1.12747098998757
N           -7.48404586633248       -0.61515175599053       -0.09634984545182
H           -8.88542890897502        0.29086178020262        0.70850867396743
C           -8.47805464222862       -1.51252982499080       -0.63847898546914
H           -8.34535151283413       -1.70622883706772       -1.71127752483187
C           -8.50725454194188       -2.83289272494701        0.13210408912022
C           -9.84349680947502       -0.83815777125952       -0.42280184587548
H           -8.60119407655736       -2.62801458203544        1.19681949997626
H           -9.35727402317251       -3.42191370971473       -0.19850074259295
H           -7.58615079743719       -3.38014867542272       -0.04319086617495
O           -9.82706375128012        0.14984962920002        0.45756053333943
O          -10.86039984005946       -1.20539296569873       -0.97380154554804
