42
 energy: -62.486133510078 gnorm: 0.000480217878 xtb: 6.7.1 (edcfbbe)
N           -0.78239554538057       -0.47758403101583       -0.28524615706664
H            0.02995436926125       -0.60577475794145       -0.87640868094548
H           -0.74771890491979       -1.19119398917946        0.43790289058676
H           -1.72883898158447        0.95704502280267        0.60953109758121
C           -2.01747371647978       -0.61505057974877       -1.05786265435694
H           -1.89779278369489       -0.01763818063799       -1.97098615956755
C           -2.38332990265202       -2.04674799177273       -1.43940131429742
C           -3.12544661032850        0.04843468815032       -0.25457984025157
H           -2.45903982040397       -2.66559573869331       -0.54742189820977
H           -3.34656191084089       -2.04811522579452       -1.93791856791654
H           -1.63058167330419       -2.47003342660065       -2.10116796679215
O           -2.70669719854572        0.97624498016201        0.62818682975456
N           -4.32214217898115       -0.27765476776211       -0.45445610659108
H           -5.65253383260827       -1.22385335616641        2.02545866130845
C           -5.40461393340168        0.38961522432584        0.24193642685653
H           -5.08458775179090        0.73142816960310        1.23963434318767
C           -5.85864157727644        1.59615752795797       -0.59009419728947
C           -6.48639635426328       -0.65510024340648        0.38913495779551
H           -5.01591535168070        2.28853225105195       -0.65073572953725
H           -6.07500038011303        1.23443875503346       -1.59575557563241
C           -7.08287164490777        2.33042930758980       -0.03665404853709
O           -6.43278652021572       -1.43037190574716        1.49645560334739
H           -7.89608660840059        1.60841199091779        0.08236606963743
C           -6.79556237176254        2.97621436456947        1.31720680622098
C           -7.52380362525454        3.39482000394138       -1.03998531323630
H           -5.93048550035520        3.63288279526854        1.24992444999269
H           -7.64959121410829        3.56738091169161        1.63998101879017
H           -6.60198497891101        2.22676746663385        2.08060223133054
H           -7.75659156095476        2.94340536387787       -2.00113894737781
H           -8.41011225302190        3.91290925008748       -0.68164842226734
H           -6.73393122033781        4.12873730347615       -1.18609477010859
N           -7.34562325940271       -0.81506872605423       -0.51342550759108
H           -7.82501744616736       -0.55449919178707       -2.22704266691051
C           -8.35479878276560       -1.84526533903377       -0.44715893761225
H           -7.94403947775460       -2.80039841276390       -0.09600659754324
C           -9.51590866796385       -1.44069942040111        0.46780141117286
C           -8.90019590358179       -2.03247932692425       -1.87203627964518
H           -9.91582985385360       -0.47729176370039        0.15738480142170
H          -10.30111092634668       -2.18842869934045        0.40156752556308
H           -9.17058524976860       -1.36801612454390        1.49610885907708
O           -8.45633050606989       -1.12318514565923       -2.73002905014960
O           -9.66718964276289       -2.90583485690175       -2.16899348781252
