42
 energy: -62.486133510384 gnorm: 0.000480402449 xtb: 6.7.1 (edcfbbe)
N           -0.89983723734221       -0.60198317931663       -0.02071080225793
H           -0.05995238914831       -0.84375053598628       -0.53275049913017
H           -0.95797657189839       -1.22619029011420        0.77950589581961
H           -1.83898600875329        0.95610883865773        0.66149934777918
C           -2.08699071000499       -0.76588299898186       -0.86052268590426
H           -1.87873417199003       -0.26865130754055       -1.81663515549417
C           -2.49472567164853       -2.21240825804141       -1.12564489300797
C           -3.21490180438685        0.01585422991151       -0.20642609840076
H           -2.64897153957987       -2.73605228504643       -0.18434205808124
H           -3.42845859602683       -2.22079314678403       -1.67713787761487
H           -1.72586170667609       -2.72859575918152       -1.69698571282023
O           -2.81310665366703        1.01602277445743        0.60690149521654
N           -4.40827188344718       -0.28439148069378       -0.45393897830486
H           -6.75584352548504       -0.14862766125859        2.09057963103345
C           -5.49411334093789        0.48369870261965        0.10520845142593
H           -5.24240602298328        0.84095752601722        1.11745507437315
C           -5.78643841373951        1.68895295624007       -0.80588627087808
C           -6.71056342816705       -0.40934384801480        0.15605954364332
H           -4.88509059579517        2.30288265708431       -0.85631903553361
H           -5.98923583359908        1.28199471725172       -1.79701480301553
C           -6.97132929993957        2.54692351631964       -0.35174328634623
O           -7.27859527287856       -0.58811200803328        1.40888051914228
H           -7.83676874706533        1.89572987352677       -0.18572126541339
C           -6.66602153122111        3.30612611974210        0.93835058783955
C           -7.33140607477564        3.53456071831475       -1.45980910633099
H           -5.78939392168324        3.93684680209892        0.80560227060769
H           -7.50734833896762        3.94007219779524        1.20896267048281
H           -6.47644387231135        2.63121158211012        1.76989221595769
H           -7.59343413406139        3.00410573029303       -2.37154321631369
H           -8.18048881044816        4.14584250762712       -1.16351849577408
H           -6.49033848394503        4.19184802447599       -1.67061685621761
N           -7.14305098892822       -0.92501365717445       -0.89393620108931
H           -8.99929891646763       -0.49864799050685        0.84557310111677
C           -8.26578321591066       -1.81236844780663       -1.03945134576941
H           -8.22296897476547       -2.16621683633870       -2.07599133377553
C           -8.25044806346058       -3.02285612493475       -0.09551045641458
C           -9.60939175278654       -1.08383745466670       -0.88121051125817
H           -8.36092062273985       -2.72101160853572        0.94376882718582
H           -9.06374964878224       -3.69553927673029       -0.35645470733534
H           -7.30503323652102       -3.54923110336258       -0.20466558405570
O           -9.77683181894995       -0.41730070430949        0.26164841382412
O          -10.46667942883017       -1.12495924943874       -1.71646569368023
