42
 energy: -62.486133514558 gnorm: 0.000479660690 xtb: 6.7.1 (edcfbbe)
N           -2.60531713096082       -1.07450549920233        1.98696573467309
H           -1.65149029192642       -1.40228066339197        2.08195135328735
H           -3.21764906591424       -1.84890284548370        2.23303211642889
H           -3.76258660456550        0.40260170995486        2.45054736942666
C           -2.87698665373390       -0.66022291116095        0.61077688800596
H           -2.08567532314485        0.04584005054264        0.32264241297529
C           -2.92892130870132       -1.80112325004210       -0.40287649949926
C           -4.17590943866944        0.12857202597120        0.64217670225516
H           -3.60335857237045       -2.58028430297834       -0.05548336818482
H           -3.29679415394163       -1.42344079867668       -1.35049448516130
H           -1.93858174788076       -2.22987535447967       -0.54157652412122
O           -4.44697941510045        0.71360320276443        1.82434824609874
N           -4.89943988567315        0.19772516902271       -0.38333290255341
H           -8.52999761405286        1.33478245819871       -0.60177062068789
C           -6.13753586012271        0.93612523191495       -0.36450083465827
H           -6.18397460940390        1.63083543307882        0.49062975143490
C           -6.28245595942582        1.71388409609658       -1.68936733774235
C           -7.27059813540783       -0.04776578000749       -0.16521696712367
H           -5.38094934663676        1.52222159551003       -2.27297124566957
H           -7.12240905039142        1.31967614755360       -2.26792288286266
C           -6.45077127994113        3.22673816869154       -1.50341623595705
O           -8.53038598890123        0.40254031624334       -0.34949877103266
H           -7.24887103041439        3.41550477654758       -0.77234305590965
C           -5.16137604221545        3.85471719062228       -0.98023949007204
C           -6.85220775645409        3.87359671975065       -2.82771374954281
H           -4.36293550395586        3.72942779172167       -1.70798815796062
H           -5.30112234167338        4.91818923860171       -0.80024927832634
H           -4.84840192088361        3.38846037001670       -0.04945270090135
H           -7.79232321673675        3.46530925524781       -3.19335367590554
H           -6.97100540146019        4.94754747105134       -2.70588035618633
H           -6.08695702646727        3.69641115808491       -3.57979681883787
N           -6.99322610829165       -1.21025417228603        0.21787275124118
H           -5.73642839854296       -2.24488975957107        0.79694771139073
C           -7.95070549968263       -2.24197203530187        0.51947903787345
H           -8.74739975964710       -1.87970492094774        1.18199823875999
C           -8.58495183096795       -2.83862690627672       -0.74021059861440
C           -7.15975430118641       -3.34211236744591        1.25231593189566
H           -7.80687252493703       -3.14910560016508       -1.43453110644563
H           -9.18374905505840       -3.70220377331814       -0.46472122976293
H           -9.21700611152380       -2.09794276379079       -1.22344773549839
O           -5.85049890624545       -3.11397750409863        1.26867009646523
O           -7.67163108325316       -4.30714395658140        1.74693701323437
