42
 energy: -62.486133504794 gnorm: 0.000480871976 xtb: 6.7.1 (edcfbbe)
N           -0.94732635729494       -0.43253882499061       -0.61873467322245
H           -0.22807947731647       -0.81890179258244       -1.21839050487678
H           -0.74937550473476       -0.73818016098157        0.33036390196701
H           -1.86384381119213        1.23699344634451       -0.30305346380247
C           -2.27148558226965       -0.90742907055781       -1.02321140836067
H           -2.34593605190568       -0.77191514435971       -2.10990793967127
C           -2.56936615481720       -2.36349936993584       -0.67929790659177
C           -3.30131746406451        0.03098066611374       -0.40794844133786
H           -2.44268168248354       -2.52920543033912        0.38873449400417
H           -3.59972929224319       -2.58018908258915       -0.93907048153997
H           -1.90363903768025       -3.03013028404147       -1.22376324921361
O           -2.82442958815591        1.26162463079835       -0.11776970282961
N           -4.46674476406713       -0.38859554436991       -0.22513818104757
H           -7.54352137378560        0.44631136321265        1.69069533073782
C           -5.56159108921163        0.39481649938335        0.28029331711579
H           -5.40159164583125        0.59875312505323        1.35027347061928
C           -5.73795078022532        1.72616764222635       -0.48608467507332
C           -6.81363875809150       -0.43301600733325        0.10426463222550
H           -4.80229791352085        2.28071108273321       -0.41131249684349
H           -5.89432834491025        1.46149404704587       -1.53408955991482
C           -6.88261279343108        2.62904266920848       -0.01404794028062
O           -7.82189438338324       -0.20120566909225        1.03195281875824
H           -7.82321808530423        2.06759626166510       -0.01575102702757
C           -6.62726958815580        3.18861547943842        1.38566190436649
C           -7.04117493436936        3.78484846571854       -1.00151673238783
H           -5.71714484281416        3.78469516857754        1.38692654639373
H           -7.45362420212186        3.82528089954866        1.69443872111089
H           -6.51207276262501        2.40453342657204        2.13248457008752
H           -7.27068488175284        3.40873487385805       -1.99529604916938
H           -7.84864039709478        4.44355545817861       -0.69022674683569
H           -6.12342944888001        4.36645343164465       -1.05595940272138
N           -6.89338766510172       -1.25553353774363       -0.82873457000172
H           -9.19294326099500       -0.29619458525451       -0.13616608359323
C           -7.99416162401239       -2.12807110166152       -1.14029937460201
H           -7.62510089392056       -2.78739325090884       -1.93448898578791
C           -8.47494536703721       -2.98504437230719        0.03928616038309
C           -9.19845051280368       -1.37405482501240       -1.72508325292380
H           -8.90403948032812       -2.37237893228784        0.82913505916045
H           -9.22499614959518       -3.69175740423855       -0.30701645200754
H           -7.63070926384063       -3.53522338134814        0.44835229879468
O           -9.69176297978363       -0.39251746919122       -0.96987495919604
O           -9.68505305433309       -1.66025941956752       -2.78169387488220
