42
 energy: -62.486133513937 gnorm: 0.000479254078 xtb: 6.7.1 (edcfbbe)
N           -1.26858563127609       -1.54218159083826        0.26046430185060
H           -0.33985332969915       -1.68671272140125       -0.11697664610956
H           -1.65662973872121       -2.45812646984952        0.47100965306190
H           -2.21049743778449       -0.49675714577239        1.56654785551844
C           -2.12387941611212       -0.85724643958454       -0.70982082308509
H           -1.54998630365587       -0.01223371838387       -1.11039946620486
C           -2.61138946474775       -1.72922946375243       -1.86372394540506
C           -3.29777726560851       -0.26392901570556        0.05499960188606
H           -3.12471535446396       -2.60759466929562       -1.47676961115707
H           -3.31810357334416       -1.16310571576391       -2.46084039130673
H           -1.77600467827894       -2.04823966498995       -2.48379689042326
O           -3.09619006124238       -0.12350218614913        1.38439062378339
N           -4.33400841337743        0.06869955179189       -0.56819968581237
H           -7.12848465110103        0.37446666438532        1.83023917819284
C           -5.45503635120200        0.67284668317745        0.10310531533968
H           -5.22144343073204        0.91412968782700        1.15351411744291
C           -5.81702908516580        1.95013112867655       -0.67888471610007
C           -6.62327657696639       -0.28241538740950        0.06136353812536
H           -4.93475839297191        2.59328330757116       -0.69552056307801
H           -6.02072617852629        1.63167313972958       -1.70166401025167
C           -7.01186016502305        2.73644679969762       -0.13014942025028
O           -7.46334228320040       -0.24000289366071        1.16552581249234
H           -7.85861709622599        2.05631522527794        0.01321864910606
C           -6.68246754542583        3.41533537503067        1.19932825840913
C           -7.43560912021025        3.78951865129719       -1.15277574124403
H           -5.87822285909820        4.13513772787389        1.06135786595705
H           -7.55321793177672        3.94540513529218        1.57906913982174
H           -6.36613827216979        2.70142965913559        1.95740537833334
H           -7.73441139429305        3.31675875049601       -2.08479959317239
H           -8.27649733202339        4.36789739734682       -0.77701998724813
H           -6.61334312091131        4.47123336031613       -1.35913642343503
N           -6.79256584284237       -1.02679669386090       -0.92445708609236
H           -9.00778610642196       -0.37680649240395        0.23296520544262
C           -7.84360882695643       -1.98739446697278       -1.13068165425346
H           -7.55966510191055       -2.53614706702643       -2.03608553794906
C           -8.03291206904526       -2.98343391582036        0.02215447439570
C           -9.19614254262028       -1.32120908893778       -1.42960154911438
H           -8.36945716400952       -2.48576907113831        0.92929239415529
H           -8.76755206689351       -3.73261151601087       -0.26335277482411
H           -7.08605035528443       -3.47720711879810        0.22975576307452
O           -9.63345748383869       -0.45914224174584       -0.51166266447819
O           -9.83489123197592       -1.57493968956546       -2.41045291577056
