42
 energy: -62.486133517540 gnorm: 0.000479149917 xtb: 6.7.1 (edcfbbe)
N           -2.36341825902528       -2.34218225840240        0.91846053702174
H           -2.52354589589357       -2.22455795342687        1.91364201266178
H           -1.44982824872628       -2.76367480082437        0.79741673179526
H           -4.17443557993943       -2.55862936062246        0.26561593035942
C           -2.43759343435215       -1.05646526603954        0.22878534200180
H           -1.94138553171193       -0.23408352115692        0.76139721955520
C           -1.82957933826361       -1.18546540367107       -1.16833141898694
C           -3.91377352888439       -0.71153157671688        0.08624298256545
H           -2.32001119206008       -1.98664389272501       -1.71756039312498
H           -1.95797471148490       -0.25194201853937       -1.70804990257119
H           -0.76692965425237       -1.40890098827786       -1.10020540493783
O           -4.72860497132385       -1.77702002417627        0.06147350211675
N           -4.23358659836216        0.49437201522011       -0.04288532387876
H           -6.32443666885601       -0.01834844347821       -2.27915420158501
C           -5.57586311769316        1.01241337486281       -0.17987093822805
H           -5.79077073276897        1.49527219642862        0.78116267664944
C           -5.54533696227749        2.08712223957505       -1.27754097055222
C           -6.65945806427699       -0.02429666142836       -0.39349786187396
H           -4.78499577379366        2.81406769137707       -0.98837938814905
H           -5.20417252794412        1.64016010248356       -2.21796264689475
C           -6.88298643808755        2.80325259233137       -1.50076467977003
O           -6.90655757108847       -0.45697834286273       -1.64637239012494
H           -7.65280560969365        2.06605378501874       -1.75616339845408
C           -7.33717953718906        3.54937965223740       -0.24854961371672
C           -6.74463296921092        3.77687233209602       -2.67079110812834
H           -6.55930905214810        4.22925314869616        0.09206152703092
H           -8.23024757318408        4.13098741276610       -0.46485720609013
H           -7.57438201651961        2.85760138392385        0.55531906880168
H           -6.44509949693339        3.25745165338572       -3.57887186326503
H           -7.69026622842008        4.27782213172260       -2.86225603982332
H           -5.99559397026756        4.53284942955256       -2.44559016836993
N           -7.26042840649231       -0.47524762940450        0.61839965765741
H           -7.68068838443087       -0.35891457507051        2.36682057939105
C           -8.29581727393984       -1.47829721689140        0.51047998488193
H           -8.97808378986216       -1.27096080146992       -0.32346415452131
C           -7.71574452902413       -2.88616206059958        0.33597572292689
C           -9.08630462113041       -1.45004957122532        1.82564750861898
H           -7.02829400295922       -3.10499503904551        1.14988819076350
H           -8.52503618861747       -3.61074205559819        0.34328841940928
H           -7.17640646022677       -2.94646772934147       -0.60500359405361
O           -8.48854040515270       -0.74645526491996        2.78104711307094
O          -10.12608600561097       -2.02794431108731        1.98193280472005
