42
 energy: -62.486133506954 gnorm: 0.000480673893 xtb: 6.7.1 (edcfbbe)
N           -1.60721289257055       -1.08356408762996        1.17200009938713
H           -0.66219724400063       -1.41307536536863        1.01771182227936
H           -2.07678546459071       -1.76725806347436        1.75975495063650
H           -2.59360342058321        0.47732427743422        1.70802268254536
C           -2.32684188547657       -0.94520549541620       -0.09339660807799
H           -1.66963880488898       -0.40153118977925       -0.78444125796057
C           -2.75146945724465       -2.26528557953962       -0.73297028542466
C           -3.52847213810527       -0.04954586052105        0.17156687426667
H           -3.38495241601183       -2.82408669438564       -0.04733295266401
H           -3.32143960686058       -2.06269356982815       -1.63291819961152
H           -1.87975847062815       -2.86681919181396       -0.98300104923569
O           -3.42716829202228        0.72827751519413        1.26112484299488
N           -4.50680337325831       -0.07285831787049       -0.61826511431894
H           -6.64861946390019        0.21366206793748       -2.53658338158619
C           -5.66208269042636        0.77497260997500       -0.38246705910646
H           -5.71459896428661        1.07330250950178        0.67173176353070
C           -5.58998621572600        2.02401318155477       -1.26839737758602
C           -6.84706190586007       -0.11960073434449       -0.67053960901872
H           -4.74904030673087        2.62435132160887       -0.91404877184787
H           -5.35283658607884        1.72943494769610       -2.29658915859336
C           -6.86401772000132        2.87806468186636       -1.24941481975554
O           -7.23149803563048       -0.28315724226503       -1.94873170010085
H           -7.71175326119203        2.27314391949507       -1.59087795280545
C           -7.17690044964870        3.38524326505401        0.15643909408443
C           -6.69741138049924        4.05536881342793       -2.20941658532728
H           -6.31803988317220        3.90738894007182        0.57245813947673
H           -8.01659972857164        4.07559951679340        0.12607772390333
H           -7.43969929448255        2.56424594298154        0.81819614066152
H           -6.48780834102579        3.70924677265764       -3.21955361816187
H           -7.60422884885502        4.65443480199921       -2.23630661867912
H           -5.87594648562658        4.69185528225080       -1.88763650927822
N           -7.35244357821006       -0.76126382461575        0.28853277430975
H           -7.57824753852786       -0.98330530176909        2.06247251314050
C           -8.42118265613433       -1.71631972838700        0.09623061398267
H           -9.21181687796630       -1.31711015263675       -0.55143325838497
C           -7.90999360011393       -3.03155681785804       -0.50203623978658
C           -9.01807085686218       -2.01110535947619        1.48064643406009
H           -7.09536788624031       -3.42148298163167        0.10481635051321
H           -8.71997280091204       -3.75518312466704       -0.52012883232385
H           -7.54887307377074       -2.86358180922364       -1.51310147755036
O           -8.31770994600697       -1.48694275543613        2.47944586219799
O          -10.00803941161264       -2.66942293118903        1.64129484354366
