42
 energy: -62.486133518295 gnorm: 0.000479300579 xtb: 6.7.1 (edcfbbe)
N           -1.06825681456317       -0.53384292996339        0.39760196948170
H           -0.22360054873059       -0.98439977100838        0.06704050721373
H           -1.17566811887905       -0.77103805595323        1.38033425220709
H           -1.95171734227857        1.16617256089040        0.40077322878949
C           -2.23575694569840       -0.99760457110670       -0.35114968434469
H           -1.97273601176781       -0.96573013592578       -1.41658459687060
C           -2.70847934578291       -2.40374771602222        0.01009875504351
C           -3.34226934730031        0.02915443702509       -0.14283147049681
H           -2.93328789654007       -2.45956039766895        1.07320420960757
H           -3.61486947313499       -2.63155143449324       -0.54002803277791
H           -1.94227410989566       -3.13800768786804       -0.23049712960923
O           -2.91820316761893        1.23939333663095        0.26065782528754
N           -4.53348966171735       -0.30738017381069       -0.35484159444517
H           -6.32441043071452        0.03615276655420       -2.47304789164390
C           -5.65617545151399        0.59867065445621       -0.21328545998225
H           -5.78833829515166        0.82832890065596        0.85033834517489
C           -5.51841036504739        1.90957064386853       -1.00301597696812
C           -6.85023157005319       -0.21958144968530       -0.65752086305049
H           -4.73050822940653        2.50210581665936       -0.53686260471896
H           -5.18688659110777        1.68720675709122       -2.02396517096927
C           -6.80961783275575        2.73592838988321       -1.05216228408202
O           -7.02866499316867       -0.40179280920639       -1.97947775707877
H           -7.59961873019549        2.14651633890413       -1.53158583770828
C           -7.28383932413084        3.11971899027822        0.34746265130679
C           -6.57253730166545        3.99137195682835       -1.89057966184617
H           -6.48792940149380        3.62106968884728        0.89407901544462
H           -8.13291958519962        3.79593416096118        0.28108659197785
H           -7.59605134726716        2.24235680155188        0.90777447814231
H           -6.24649852414302        3.73320218083911       -2.89615814613126
H           -7.48695830160320        4.57425289737556       -1.96851031966573
H           -5.80737388135504        4.61323917901049       -1.43089987679338
N           -7.56615722330230       -0.77597233508524        0.21591054878300
H           -8.13717249657639       -0.90806663118551        1.92899945290758
C           -8.66708468397607       -1.64388784876433       -0.14065320906716
H           -9.26290934358276       -1.23477774010189       -0.96599725382288
C           -8.17271082101960       -3.04143876457711       -0.53095531178908
C           -9.56072212628484       -1.77682344079894        1.10060595692614
H           -7.54390755581938       -3.44484193786307        0.26008946372781
H           -9.02636179961017       -3.69665331223579       -0.67969868313627
H           -7.59320983698978       -2.98469462687188       -1.44866574541898
O           -9.00416936513106       -1.28983533366697        2.20371633129734
O          -10.64420706087773       -2.29114318294886        1.07813602069195
