42
 energy: -62.486133509483 gnorm: 0.000481031421 xtb: 6.7.1 (edcfbbe)
N           -1.40464896625431       -2.05354758171111        0.02538587259876
H           -1.25765687737654       -2.16915764013038        1.02250014644014
H           -0.52372919233501       -2.23076066385894       -0.44212150090797
H           -3.23739531822834       -2.57274038620530       -0.27262077735583
C           -1.89662443442311       -0.71174592827508       -0.28195659855331
H           -1.44946096592730        0.07873485158107        0.33620299288966
C           -1.64942595195911       -0.39164300164633       -1.75622602421061
C           -3.40129891447356       -0.71553633828559       -0.04401478577303
H           -2.09811452399726       -1.15713780629013       -2.38568250923599
H           -2.09404384415092        0.56905818000521       -1.99707341402066
H           -0.58172070286573       -0.34914145247886       -1.96145603282244
O           -3.96735929986268       -1.93551708508637       -0.12795583082813
N           -3.97523545035272        0.38180240304672        0.15044882216229
H           -5.09102672228903       -1.30509806110689        1.80044159501196
C           -5.38696267346637        0.63013733973636        0.31692158536963
H           -5.45801591685242        1.21739489799024        1.24626342308690
C           -5.83094813302448        1.51857847428617       -0.85707245562023
C           -6.30282816958127       -0.56327599479053        0.50864296517828
H           -4.98517576204956        2.15738725382268       -1.11768358214258
H           -6.03847215907713        0.86799473416677       -1.70728315377559
C           -7.05288614877462        2.39427784196081       -0.55674267415102
O           -6.00020084404233       -1.42594982648510        1.50268614939806
H           -7.79372665042435        1.78840759002693       -0.02775633386312
C           -6.67604390352705        3.58758025718380        0.31893451099771
C           -7.66859364658832        2.88880211281832       -1.86456184248644
H           -5.96251014306242        4.22570623610321       -0.19833860045661
H           -7.55843032530997        4.17932307771430        0.55124808607972
H           -6.22915940954166        3.26709152099897        1.25671309201831
H           -7.99685399396353        2.05657388390899       -2.48219772697787
H           -8.52919682289571        3.52200680929730       -1.66271849976480
H           -6.94152605462074        3.47027566122357       -2.42783290540798
N           -7.38991003105537       -0.62193444504099       -0.12356929450995
H           -8.36212461556359       -0.14187391877821       -1.56108576263336
C           -8.34725059109503       -1.68170594130960        0.08995102703733
H           -7.86066515861354       -2.65804763109516        0.20676570934345
C           -9.21809553779356       -1.41186478660841        1.32224990367473
C           -9.25803817325088       -1.72004595447887       -1.14657704941048
H           -9.68079925362223       -0.42987531125400        1.24308662006322
H           -9.99614643732960       -2.16741641258497        1.38421800430390
H           -8.60758503952147       -1.44563255919918        2.22108648944105
O           -9.09163964482491       -0.67943326121018       -1.95419930852902
O          -10.05466485591278       -2.59407691000351       -1.34808531050142
