42
 energy: -62.486133505593 gnorm: 0.000481175069 xtb: 6.7.1 (edcfbbe)
N           -1.93999285270853       -1.96645266077824        1.11418773438235
H           -0.95513837938385       -2.18775251696381        1.19211773304091
H           -2.43031432590695       -2.82532107078291        0.87993783292574
H           -3.34542105741591       -1.06713706830899        2.07609458758612
C           -2.17418974288559       -0.96061184330326        0.08050022487393
H           -1.42932698333061       -0.16685091522520        0.21906787959379
C           -2.08773637938626       -1.48540933518434       -1.35215106205296
C           -3.53492429829428       -0.33750949658914        0.35966158441623
H           -2.82183495850106       -2.27412048967829       -1.50744845470937
H           -2.29399434378088       -0.67700933279123       -2.04556180961797
H           -1.09486013962173       -1.88368616677243       -1.55146396625860
O           -4.00074038621606       -0.51555969676210        1.60200846507014
N           -4.11662323053291        0.31761597226462       -0.54556402259660
H           -5.44430988126286       -0.51728364226557       -2.17030621729335
C           -5.42659642915441        0.89607398470257       -0.29379787539127
H           -5.54272070796896        1.19542178415499        0.75291812718781
C           -5.61867436083560        2.09573316085435       -1.23002519070801
C           -6.43400292776492       -0.18814730465669       -0.59047002636736
H           -4.89672559020118        2.86370015393914       -0.94652479334874
H           -5.37549153451675        1.78209444194572       -2.24872725941001
C           -7.03453037309593        2.68104294072705       -1.20450368673278
O           -6.25608597572006       -0.84395436720671       -1.75416296460188
H           -7.74637781393653        1.88719531928077       -1.45703499578580
C           -7.39448659784597        3.22873650172865        0.17398703984008
C           -7.14761159795373        3.78473558057807       -2.25488988163294
H           -6.66231701664802        3.96859258512768        0.49102679408573
H           -8.37175313483403        3.70431787002003        0.14376896542179
H           -7.43074990303792        2.43215318038269        0.91145140054442
H           -6.91876480857619        3.40184540807349       -3.24704648050114
H           -8.15561612761612        4.19165287218648       -2.27048370806618
H           -6.45487667637535        4.59306414804828       -2.03021174632479
N           -7.34265678699135       -0.45416437840250        0.23791554358651
H           -8.33852269693780        0.01696766616677        1.67411835468642
C           -8.31063857829534       -1.50149924204442       -0.00405968106847
H           -8.69183023562348       -1.47618206025634       -1.03281985123741
C           -7.71991701278856       -2.88861436689838        0.27074068787924
C           -9.48147178078063       -1.26999644198118        0.96300115174268
H           -7.28471686799191       -2.91300542115194        1.26794357634455
H           -8.50751992586182       -3.63395954689350        0.20546286351715
H           -6.94733472178677       -3.11291108009522       -0.46066981722953
O           -9.23763652484535       -0.33609566735506        1.87347546607979
O          -10.50715759004613       -1.88973527626572        0.90747251263254
