42
 energy: -62.486133509919 gnorm: 0.000479938188 xtb: 6.7.1 (edcfbbe)
N           -1.48412917364653       -1.70638143380974        0.27879254992435
H           -0.57921567176003       -1.27145116649664        0.39914262570455
H           -1.33817392787984       -2.67199288685432        0.01116116475476
H           -2.84530141664155       -1.33844847268276        1.47865349294712
C           -2.30413926927372       -1.00402694417941       -0.71510737043364
H           -1.75281814757920       -0.18434203017911       -1.18684208153421
C           -2.82718199528757       -1.94079419501213       -1.80139812438806
C           -3.50060987113765       -0.40218436637350        0.01239934424766
H           -3.37408889023372       -2.76631026772812       -1.35035856576494
H           -3.50863996836918       -1.39055514932513       -2.44185685696349
H           -2.00606007726326       -2.33629693589363       -2.39665045140316
O           -3.63422047243641       -0.77713516135625        1.29554964571497
N           -4.27817977833374        0.35938523664420       -0.61515726990470
H           -7.29692014756989        0.72589292730265        1.60592202498333
C           -5.44605100307577        0.88910546763955        0.04807406016480
H           -5.22249318201587        1.13831673568049        1.09831121593798
C           -5.86936477822132        2.14375622231769       -0.73813346176048
C           -6.54883196122692       -0.14139067566888        0.02694760791564
H           -4.99559767173614        2.79519718538339       -0.79652269591677
H           -6.09799354138672        1.80960332434256       -1.75079573928043
C           -7.05404774246628        2.93367103156131       -0.17353511825422
O           -7.52432994619355        0.01075537056294        0.99943468136852
H           -7.91086579079628        2.26415636752717       -0.03924057038183
C           -6.71441118133539        3.59380922819569        1.16315020391102
C           -7.46739684135707        4.00619408430829       -1.18085388057300
H           -5.89799633631806        4.30080733981189        1.03195051653808
H           -7.57604109770604        4.13570817681387        1.54727254054043
H           -6.41015228371573        2.86949197593112        1.91677329337637
H           -7.76134360094837        3.55146232009953       -2.12333744896442
H           -8.30843784356867        4.58171415176079       -0.80092679891862
H           -6.64119185590117        4.68788799860634       -1.37020631931418
N           -6.54058215670386       -1.05232895427689       -0.82594516818351
H           -8.92094695669628       -0.41495307287526       -0.06265067541924
C           -7.48681759628826       -2.12701661698104       -0.96981588190137
H           -7.05486136475951       -2.79131785886599       -1.72761931092879
C           -7.73296565284457       -2.92669982482526        0.31757552701390
C           -8.84230174613013       -1.66066440950687       -1.52211975340591
H           -8.23218102249256       -2.32335264420763        1.07265571915912
H           -8.34935794374011       -3.79374393306938        0.09347254436712
H           -6.77970145132830       -3.26257256070949        0.71976051162224
O           -9.44818119172423       -0.69248341682258       -0.83555404833441
O           -9.34206870948917       -2.15249819418189       -2.49343655716127
