42
 energy: -62.486134605931 gnorm: 0.000471168515 xtb: 6.7.1 (edcfbbe)
N           -2.51476206349688       -2.28150574102141        1.33599233792056
H           -1.57609615277844       -2.59170752826182        1.55349548996264
H           -2.90383994016323       -2.92605570351693        0.65282745256128
H           -4.15304659809500       -1.80421922416150        2.13730473841468
C           -2.51238727172632       -0.92273951688264        0.80043366269546
H           -1.89044471326786       -0.30950370252306        1.46452146825024
C           -1.99227054617522       -0.80292014638830       -0.63058619978726
C           -3.94324914794904       -0.39728075101076        0.91105534735598
H           -2.58022005573172       -1.43270637041438       -1.29517452714809
H           -2.08565362745059        0.22574552158532       -0.96063478014407
H           -0.94898458572891       -1.10783748010859       -0.68438755557686
O           -4.69624857373122       -1.05613843323659        1.80678854173123
N           -4.25598737214214        0.62189422561822        0.25022932930881
H           -7.59766707070730        2.11890632441436        1.08393928881622
C           -5.54677599889813        1.23304040878082        0.09451815389452
H           -5.50754305976770        2.17587252095019        0.66076551456207
C           -5.67224337750966        1.55760056333306       -1.41202104086702
C           -6.77641024715515        0.46332837182201        0.52286826942301
H           -4.73827161641724        2.03105338510351       -1.71725119481444
H           -5.75027486163495        0.60366692944738       -1.93638965393813
C           -6.85521256015494        2.45063515482663       -1.79944372332561
O           -7.81349692678623        1.18073125115688        1.02101773086791
H           -7.77754238040082        2.03127905163214       -1.38258841119011
C           -6.67903783248454        3.88090978924270       -1.29078021210223
C           -6.99707273329162        2.46577461416554       -3.32108157263241
H           -5.78287973123922        4.32227650344903       -1.72147791249905
H           -7.53249995114646        4.49110451508348       -1.57804679521607
H           -6.58683168664724        3.92395671684022       -0.20742093028468
H           -7.17023523797409        1.46197671277149       -3.70116221812476
H           -7.83335427632971        3.09363006114391       -3.61970443275178
H           -6.09239372035517        2.85653506402172       -3.78158738338696
N           -6.81474943359009       -0.78654378017016        0.40269083038905
H           -5.87453625809342       -2.28057605852090        0.31956678480402
C           -7.95943057417884       -1.58356088919089        0.76898248190319
H           -8.33128994088978       -1.31791986176006        1.76721327419702
C           -9.10599257298641       -1.44885505660057       -0.23760707861149
C           -7.48963720531526       -3.04784425752649        0.80259828815055
H           -8.73919141338479       -1.63887363694024       -1.24448660479871
H           -9.87681593029049       -2.17572888341922        0.00244188781863
H           -9.52618965370284       -0.44730733320359       -0.19483008362438
O           -6.21352687252560       -3.19907294122530        0.46910033069012
O           -8.21189752739027       -3.96304590595154        1.08724630842776
