42
 energy: -62.486133502055 gnorm: 0.000481360454 xtb: 6.7.1 (edcfbbe)
N           -2.16078812005994       -0.56399870435001       -1.70316424502382
H           -2.17010544533165        0.38083705307895       -2.07369679101264
H           -2.09859885049013       -1.20370876864319       -2.48724580353568
H           -1.42667628787643       -0.48601642470418        0.13331412646583
C           -3.37600346307050       -0.82626537092752       -0.92606561105609
H           -4.30535454170234       -0.54588564970349       -1.43360658754755
C           -3.42479190467062       -2.31776635046113       -0.58634694908094
C           -3.22490551611549       -0.05269262765001        0.38399039350322
H           -2.50286778173467       -2.62435261198308       -0.09612416408704
H           -4.26112939755290       -2.51314994661463        0.07605368130304
H           -3.55073042517397       -2.90430253878293       -1.49388297802073
O           -1.97232774780027       -0.11240771259528        0.85465323637294
N           -4.05326671271375        0.58719549302389        1.08279302567976
H           -7.48134554403723        0.60133246498172        2.04710794435965
C           -5.41566424719781        0.94637321682284        0.83379504207673
H           -5.71062988455315        1.47277929525555        1.75503070556696
C           -5.52117893859217        1.94230054194501       -0.34442025006810
C           -6.41359662396834       -0.16989498263628        0.60841689364785
H           -4.74017198537271        2.69361738076207       -0.21199162122634
H           -5.31477590231792        1.39305636145137       -1.26366785102505
C           -6.88396807576566        2.63388019273966       -0.47265156596052
O           -7.54480449512159       -0.11209771443768        1.39957243217467
H           -7.67631571672576        1.87784493063275       -0.43340689524057
C           -7.11218874516641        3.65602712195437        0.63955892912711
C           -6.97175545020241        3.32714677107366       -1.83164542464198
H           -6.34983504814111        4.43078802092190        0.59737673933074
H           -8.08564410578808        4.12671075342883        0.52233974115961
H           -7.07590514871685        3.20140857290937        1.62698171419262
H           -6.88071442415608        2.60363769420972       -2.63816132099905
H           -7.92711379207141        3.83538268525713       -1.93725358571467
H           -6.17706171954929        4.06305556455359       -1.93420046356163
N           -6.21680454291526       -1.05326871404280       -0.25371047222746
H           -8.76290783850724       -0.56808997333356        0.11685900252348
C           -7.08866399801683       -2.14918927440165       -0.59787697537134
H           -6.50472963060663       -2.77874084102342       -1.27947854593344
C           -7.56424463782037       -2.99980672737322        0.58587887303908
C           -8.30481517238152       -1.65716326775850       -1.39903525462291
H           -8.19731771298021       -2.43188374877805        1.26362141300742
H           -8.12367177801953       -3.85400202558371        0.21250968609638
H           -6.70196390644251       -3.36017266247187        1.14291529010596
O           -9.09259391660210       -0.78160691845545       -0.77644372011481
O           -8.53826221656008       -2.03892909433473       -2.50975370297399
