42
 energy: -62.486133504667 gnorm: 0.000481652800 xtb: 6.7.1 (edcfbbe)
N           -1.62434492358392       -1.12644689463393       -0.76837994469191
H           -1.31034278406256       -0.43461134871319       -1.44050871387821
H           -1.42750971301585       -2.04622011461445       -1.14566736937306
H           -1.39147640346981       -0.24394014073932        0.86510406421195
C           -3.04925360049399       -0.97356313435536       -0.47580582467679
H           -3.63538442986847       -0.75828318784311       -1.37891300641720
C           -3.57360584092828       -2.25325709011257        0.17726327547729
C           -3.19102124783390        0.16093315966667        0.55868719864541
H           -2.95016346801390       -2.51022715973447        1.03085508345814
H           -4.59261272021146       -2.10826513833925        0.52458757965863
H           -3.55848784099269       -3.07884396297939       -0.53226101029777
O           -2.06403875023082        0.35754717980043        1.25154242469998
N           -4.19243405031977        0.82702347665050        0.91628549790750
H           -5.38404864238126        0.19374512797208       -1.94405085358215
C           -5.50585308182926        1.03127853185053        0.38715469876776
H           -6.10310743151394        1.30088745870799        1.26607808345015
C           -5.45270591859730        2.24617351298080       -0.56162546500507
C           -6.24196617058220       -0.12786950587128       -0.25981075473504
H           -5.01636123673150        3.07008457304129        0.00471253127013
H           -4.76079240078131        2.03417238270116       -1.38603201402881
C           -6.81312618898652        2.67574056702147       -1.12503700744758
O           -5.94377428582377       -0.47809763580062       -1.53391740743434
H           -7.26559840756341        1.83858013548962       -1.66981536072636
C           -7.77449459882575        3.09410931341820       -0.01570075297726
C           -6.60743600123851        3.82956649105507       -2.10630981693299
H           -7.32146336661954        3.85869956918506        0.61095004662900
H           -8.68647353390070        3.49927010968548       -0.44751200669456
H           -8.04576445236744        2.24599724312153        0.60688585552555
H           -5.93607106190752        3.54351858571124       -2.91397032036547
H           -7.55647051589696        4.12869252003335       -2.54391159663822
H           -6.18005324855364        4.68826256131505       -1.59361150153863
N           -7.19404395346654       -0.65332123682500        0.37595692432966
H           -8.37304963423654       -0.61792892078351        1.78779833458548
C           -8.02742512224165       -1.68332989780052       -0.19976018975711
H           -8.28590410119586       -1.45764472697874       -1.24280430244205
C           -7.36732150841988       -3.06555499248902       -0.14871199683303
C           -9.32029340087749       -1.73742386398093        0.62875935856710
H           -7.03432160665336       -3.28298282508097        0.86446119287353
H           -8.09152214049542       -3.81610244899949       -0.45311940218424
H           -6.51403588801041       -3.09599889237447       -0.82166593226471
O           -9.25661719849588       -1.04981578885499        1.76201367378131
O          -10.28556107110977       -2.36084400532652        0.28650447240431
