42
 energy: -62.486132260181 gnorm: 0.000629557312 xtb: 6.7.1 (edcfbbe)
N           -1.75866594600626       -1.31522907411286       -0.52125236796914
H           -1.21078434751348       -2.16265648865937       -0.43805665679562
H           -1.16954437087760       -0.53901044477351       -0.23238623272365
H           -2.91639425648715       -0.49252597105769       -1.77792339772399
C           -2.95070919449304       -1.37705041025144        0.32550327481353
H           -3.40165771153345       -2.36718764242891        0.18373945590236
C           -2.68857715021183       -1.15726388142183        1.81241602170282
C           -3.95613342076162       -0.36749343967372       -0.22617056720271
H           -2.21055443024180       -0.19241747447163        1.97123989889326
H           -3.63262548027224       -1.16484935020650        2.34530652016425
H           -2.04475279128699       -1.94121961940195        2.20558298029438
O           -3.74430432463498       -0.03843787582312       -1.51304181700204
N           -4.88141686602694        0.01276936091116        0.52879057253806
H           -8.33757336155728        1.57902077315469        0.08798605422266
C           -5.97572007294375        0.89388336660852        0.21110587064254
H           -6.10821916600341        1.51123959234112        1.11186079236263
C           -5.75737880839724        1.80738920589764       -1.01404824311921
C           -7.20807077626426        0.02118831964899        0.08404348162708
H           -4.75037139760575        2.21888997002431       -0.91483669987760
H           -5.76638134244374        1.18497339274536       -1.91005607284684
C           -6.72756406062630        2.97958168446262       -1.21615194260865
O           -8.41728510416675        0.62060644881134        0.01172434300264
H           -7.72401480046361        2.60054044487680       -1.47252617308354
C           -6.82663995417384        3.88661582361851        0.01083416652232
C           -6.24465314064102        3.80081283046412       -2.41354771830284
H           -5.83749413284178        4.23945962073667        0.29505051710787
H           -7.44399622049666        4.75354804572739       -0.21575887909486
H           -7.26539632225511        3.38407690762786        0.87146709184467
H           -6.16340360108438        3.17566286282088       -3.29934107090597
H           -6.93931039678617        4.61017232960356       -2.62692301102210
H           -5.26753637287601        4.23236685450805       -2.20824441927426
N           -7.06687388868343       -1.22649435173273        0.12740368667503
H           -6.00407870821202       -2.54314858169556        0.64052677863792
C           -8.15784456959990       -2.16473006306553        0.06910521956666
H           -8.97991570262575       -1.87800962415639        0.73855746984726
C           -8.70979128928449       -2.32348095074811       -1.35068250765388
C           -7.58981256049133       -3.51580277907414        0.54033013009659
H           -7.89657066626157       -2.53867147610075       -2.04089342750385
H           -9.41880800095752       -3.14638689746550       -1.36786396279596
H           -9.20720180734352       -1.40832877843297       -1.66175827866218
O           -6.28827283063228       -3.47922910014607        0.79799616159348
O           -8.25989188383867       -4.50519926456769        0.64982785420421
