42
 energy: -62.486133515361 gnorm: 0.000479927827 xtb: 6.7.1 (edcfbbe)
N           -1.54241247415189       -1.80498289222996        0.91974332564984
H           -0.53688027925956       -1.91871484669606        0.95276578296223
H           -1.94374296309648       -2.70175624467581        0.66006332741052
H           -3.00929044480971       -1.12798261892504        1.97285704027952
C           -1.92701665658781       -0.78538444515652       -0.05281203910633
H           -1.26883219669888        0.07945668212567        0.09643671721552
C           -1.84460052004207       -1.23102832266414       -1.51311691455243
C           -3.33404094277883       -0.32875565848682        0.30588603230100
H           -2.45836797489845       -2.11700604554459       -1.67188015218681
H           -2.20620064676910       -0.43387180260372       -2.15427220942801
H           -0.81693177898961       -1.46677487324896       -1.78113944604805
O           -3.73674793737611       -0.63064611033996        1.54677649773245
N           -4.01558366493740        0.31670494742245       -0.53743876097132
H           -4.94200117519846       -1.21290794687783       -1.49922233269471
C           -5.36982226810827        0.72293468129530       -0.20920643550390
H           -5.45226745700648        1.03602441308729        0.83725877205385
C           -5.72675292237969        1.88843928083318       -1.14838999476517
C           -6.29959169743986       -0.45205304136059       -0.42554370608804
H           -4.97470189867418        2.66448757056504       -0.99275894707133
H           -5.62074740558256        1.53179505313237       -2.17547397732164
C           -7.12264206656707        2.48600483986812       -0.96063087432998
O           -5.82967281758525       -1.45871540847022       -1.18647678509013
H           -7.86430936966009        1.69654243762440       -1.11065339965735
C           -7.30886610671775        3.07103317406941        0.43698260525665
C           -7.35405632785112        3.56863287665517       -2.01407459456994
H           -6.55942350452031        3.83599905982241        0.63084417921602
H           -8.29283044437737        3.52511961672335        0.52342947126534
H           -7.22437538053896        2.30058688007515        1.19821772541386
H           -7.24810151887029        3.16198384720280       -3.01718409453583
H           -8.35516992962695        3.98104692734113       -1.91712475148600
H           -6.63622919125064        4.37757964415092       -1.89375744088882
N           -7.47404390170787       -0.40974394591743        0.02751323682066
H           -8.87094011405978        0.53976600986561        0.73171425876011
C           -8.41495734921123       -1.48053195555895       -0.21352440780707
H           -8.37590493064543       -1.83345975238993       -1.25233256604801
C           -8.16688090162991       -2.66966173562678        0.72117946837030
C           -9.81888187088681       -0.92734330607310        0.06975356391020
H           -8.15669091273000       -2.33195085724356        1.75557683307451
H           -8.95986818694181       -3.40073788887315        0.59123702834396
H           -7.20893569041910       -3.12836233476956        0.48905084723864
O           -9.81378880220598        0.26395100715256        0.65465334549940
O          -10.82308863556521       -1.52774273787083       -0.19599115628736
