42
 energy: -62.486132294566 gnorm: 0.000622192371 xtb: 6.7.1 (edcfbbe)
N           -1.07262821739129       -0.68874665069891       -0.69096349035502
H           -0.37569352880091       -1.40562081027643       -0.85165441174128
H           -0.72870748297835       -0.09015638388278        0.05499361068393
H           -2.14881407078355        0.51981202605208       -1.69291873846821
C           -2.35148891091801       -1.28103137482028       -0.29797893804069
H           -2.56044958858610       -2.09731954672335       -1.00222198807044
C           -2.39573612756461       -1.82309344143338        1.12717915675450
C           -3.42561193045938       -0.22245534994430       -0.53391243776578
H           -2.15443177975671       -1.03315903109897        1.83581281333019
H           -3.39629692022150       -2.18161135231811        1.34437804468782
H           -1.68384061661506       -2.63769258942077        1.24621232402111
O           -3.08993414178628        0.68667963754912       -1.47681823728666
N           -4.50213478027701       -0.30633560500554        0.10100042845176
H           -5.86006070993093       -0.03172066356530       -2.30510368046149
C           -5.64910897613243        0.56675494703420        0.01914860233734
H           -5.94647644509518        0.72129335664118        1.06210182908067
C           -5.49848456927919        1.92593392688255       -0.67859796088058
C           -6.73375651909288       -0.27480475362187       -0.62183369637795
H           -4.75626531063515        2.50963095406725       -0.12996861440243
H           -5.11167140592011        1.79465993111494       -1.69206165689721
C           -6.81637154868212        2.70838189749947       -0.75142023929267
O           -6.62976909828692       -0.49432889596067       -1.94773671238521
H           -7.56644239281351        2.09067066167261       -1.25939409651427
C           -7.35035340361996        3.06377612889800        0.63399678590630
C           -6.60306946175156        3.97906986222656       -1.57324738137409
H           -6.59519887080858        3.59738776168032        1.20755493989435
H           -8.22508897995357        3.70347179117379        0.54190374224117
H           -7.64367235297403        2.17242896285914        1.18185491975973
H           -6.24686918758758        3.74096725576233       -2.57335857632985
H           -7.53409199346812        4.53279951887753       -1.66626047357204
H           -5.86857463179465        4.62130352598060       -1.09175062581745
N           -7.63506024697778       -0.77803027346447        0.09663634842253
H           -8.57273052063543       -0.82304365025632        1.65743575070069
C           -8.66522827832590       -1.62803282900933       -0.45821897360442
H           -9.04480677437707       -1.24487546361408       -1.41368724230511
C           -8.15627572595745       -3.05911392949916       -0.66516199658877
C           -9.81696487816517       -1.66823413015694        0.55626088557034
H           -7.74062614600746       -3.44185290711114        0.26469001103832
H           -8.98176729103495       -3.69288981368859       -0.97645147980934
H           -7.38270425708828       -3.06872380187985       -1.42864127197954
O           -9.49612658915615       -1.15720579010420        1.73898493692110
O          -10.89280659049250       -2.13696889373863        0.30815289116841
