42
 energy: -62.486133502483 gnorm: 0.000481539465 xtb: 6.7.1 (edcfbbe)
N           -1.88461982428021       -0.83634963616016       -2.25171646379493
H           -1.18665091329278       -1.48513118272912       -2.59388295876426
H           -1.45039131744800        0.08071514359012       -2.19269557737136
H           -3.70596596580917       -0.34179436552907       -2.59602560909336
C           -2.37965589112637       -1.23763981709535       -0.93674783342626
H           -2.59414654613787       -2.31331976600669       -0.98323133441862
C           -1.41704395156612       -0.96527016587918        0.21707401920316
C           -3.71864880833778       -0.53732014192106       -0.73009492843460
H           -1.17687423146475        0.09516610422578        0.26055313341575
H           -1.88540479969208       -1.24700040757394        1.15375830151173
H           -0.49745460633095       -1.53251720224544        0.08751463470475
O           -4.31789293446979       -0.13940081243675       -1.85780183906455
N           -4.16916983480675       -0.42395298360697        0.44045482002307
H           -5.70773345766881       -1.98445632558534        1.66990947325742
C           -5.45638779139035        0.19272787476881        0.73351269758245
H           -5.46675108545094        0.31018918048049        1.82702527965062
C           -5.68594404051222        1.55387597099216        0.07359072791264
C           -6.49739935494207       -0.83680395180440        0.35899353281847
H           -4.80076975431425        2.16865699862097        0.25343439473634
H           -5.78199254945747        1.40168149224241       -0.99997127874485
C           -6.93037652909476        2.27881829837948        0.59858939701643
O           -6.46555845230808       -1.98593659306301        1.07074707516874
H           -7.74448378112035        1.55225445503983        0.67887046742308
C           -6.68290776498529        2.89815892210094        1.97263341423771
C           -7.34800237604766        3.36368617120818       -0.39255469086665
H           -5.88656276812405        3.63775687361360        1.91580161115181
H           -7.58247983920180        3.39286394739739        2.33180561332317
H           -6.39914016280376        2.14484925268288        2.70342466318824
H           -7.59874486582137        2.92903191851527       -1.35701044451627
H           -8.21779037624624        3.90233884417585       -0.02368165236419
H           -6.53919170530345        4.07739869353183       -0.53546763983373
N           -7.27174021372261       -0.64265786307023       -0.61086404812050
H           -7.57441191789773        0.26011418851307       -2.12773828288118
C           -8.21949548869478       -1.62953806211025       -1.06728943785813
H           -7.79132913761168       -2.64049444978689       -1.07253769180490
C           -9.48795755614055       -1.63455569647989       -0.20799436873165
C           -8.60217279484513       -1.24464838578547       -2.50618844625243
H           -9.90022870548222       -0.62913402919567       -0.14899434204199
H          -10.22337878367433       -2.29448343157125       -0.65936523988462
H           -9.25506116449151       -1.98301585596173        0.79522419118304
O           -8.11876569003944       -0.06914473870398       -2.88415915470904
O           -9.28551351821824       -1.93774421804969       -3.20796898449307
