42
 energy: -62.486133527966 gnorm: 0.000478110188 xtb: 6.7.1 (edcfbbe)
N           -2.56326870375454       -1.67827273259065        0.98688137510657
H           -1.84871823780064       -2.10633837915943        0.40984202027981
H           -3.18358655020511       -2.41741086087985        1.30979268618058
H           -2.63527930947488       -0.47303948603311        2.33339920611084
C           -3.32618284040194       -0.68197594269363        0.23022179778013
H           -2.58857976644074        0.00373254705416       -0.21851670209760
C           -4.12591372191784       -1.31777533183463       -0.90366350430956
C           -4.01755710209078        0.23532826851592        1.28191072476713
H           -4.73152777394651       -2.13728179759307       -0.52950674386018
H           -4.77444174403528       -0.60630539630969       -1.40102874087588
H           -3.43016625536984       -1.71948740177901       -1.64146524469305
O           -3.31527635956874        0.23467344925762        2.42037623390205
N           -4.90460977065669        1.12197281177987        1.20863873348034
H           -8.26187456264970        1.22174947792848       -0.61682230994820
C           -6.04839570754015        1.34656828328337        0.38972207816996
H           -6.67341303904597        2.03856708964261        0.97764886416250
C           -5.61994345009195        2.08107808654414       -0.90878500805675
C           -6.89841170505553        0.11221423273428        0.17132502548797
H           -4.94488427954564        2.87427036925906       -0.57880710460115
H           -5.03083418747752        1.39398720620522       -1.51818977839839
C           -6.70423862704574        2.71205544149209       -1.79173596565512
O           -8.10666869407310        0.29270074412035       -0.40680758224603
H           -7.35169990484904        1.92994722012511       -2.20648363168963
C           -7.54923300372226        3.73665612409505       -1.03415177450354
C           -6.02553687305129        3.39838244020308       -2.97925385028984
H           -6.90965400970195        4.52057158259117       -0.63530401071766
H           -8.27185574544221        4.19551207671020       -1.70547547399358
H           -8.09815567549942        3.29971889960914       -0.20167294095389
H           -5.42953593649170        2.68787402125797       -3.54734062768917
H           -6.77014316654063        3.82809555469337       -3.64503581710010
H           -5.37218155762704        4.19618123058180       -2.63406864103739
N           -6.53367700843269       -0.99188433944070        0.64925044350871
H           -5.44851063262440       -1.81258330091868        1.82834553443897
C           -7.32108812881175       -2.20117976315195        0.60478220921366
H           -8.23114311117454       -2.07130714805375        1.20859766301865
C           -7.73240297282763       -2.66720378072751       -0.79283013159224
C           -6.47745344057854       -3.28378326287788        1.30141190633403
H           -6.86763672367030       -2.69796408371132       -1.45224824610343
H           -8.14961086470885       -3.66744128186411       -0.71539804864114
H           -8.47398298677197       -1.99506459852971       -1.21413858255786
O           -5.43233643895871       -2.79214068982655        1.96394391284307
O           -6.72702426560477       -4.45533503591505        1.25082145590109
