42
 energy: -62.486133511259 gnorm: 0.000480752852 xtb: 6.7.1 (edcfbbe)
N           -2.38754428784283       -0.71714505763037       -1.95596577463317
H           -2.43206292673960        0.15303792639193       -2.47637187306532
H           -2.43325982383566       -1.47983396922754       -2.62231234863937
H           -1.39762953660107       -0.32697562670226       -0.35528201503416
C           -3.49475929206657       -0.80815446998027       -1.00218161628267
H           -4.45930191351294       -0.50202593069500       -1.42204580864306
C           -3.58915068108704       -2.25068440944515       -0.49773052506656
C           -3.13168635987964        0.08711875206160        0.18569311785192
H           -2.60671830456227       -2.59648525582492       -0.18256832923978
H           -4.26644697865820       -2.31697689513549        0.34855774632807
H           -3.95772800656577       -2.90353480000397       -1.28636058626111
O           -1.81540998130197        0.12167033291166        0.41079305414637
N           -3.85996479404325        0.73323832992863        0.98432062890129
H           -6.03936311707658       -0.43335711511887        2.78448693081849
C           -5.27743024259682        0.97509747576770        0.97551912672761
H           -5.47596387204842        1.43315290413683        1.95626790071340
C           -5.63786767701536        1.99518688726398       -0.11901022625693
C           -6.13102761080194       -0.27144305074375        0.86990206793497
H           -4.94381741359521        2.83293673170715       -0.03329822401667
H           -5.47832731061788        1.52241707639052       -1.08855766668650
C           -7.08044412119487        2.50688380504680       -0.03712119577582
O           -6.44594630517641       -0.88360719465863        2.03263671661906
H           -7.74895185952331        1.64725546399526        0.08226461209695
C           -7.27913485962456        3.45329867233897        1.14468787513386
C           -7.44216095834965        3.22273238677155       -1.33774724145282
H           -6.60904313137989        4.30604865804587        1.06174148152700
H           -8.30210020702058        3.82210443857205        1.16281981483152
H           -7.08571123777862        2.95648968270889        2.09180406434686
H           -7.35996654953828        2.54902639821724       -2.18751870203737
H           -8.46257611303172        3.59569752319747       -1.29583456166168
H           -6.77576806705103        4.06655952565420       -1.50175987829744
N           -6.43901536901249       -0.75753124100744       -0.25120366369142
H           -6.59044245758607       -0.67403933515894       -2.10453329362682
C           -7.16674529831603       -2.00078041887329       -0.37627886048316
H           -6.80262661852362       -2.76813322490592        0.31696368262636
C           -8.66986263222265       -1.79743684614026       -0.14908199999511
C           -6.96996554603230       -2.47661765845492       -1.81943535778201
H           -9.05008450449205       -1.02458802245574       -0.81519976160319
H           -9.19543317387154       -2.72766428861548       -0.34657741826954
H           -8.84733795854476       -1.49673784887799        0.88051240788339
O           -6.68775926707404       -1.47983230711875       -2.65722302235340
O           -7.07960856740927       -3.61741849362401       -2.16823410599239
