42
 energy: -62.486132296737 gnorm: 0.000621945128 xtb: 6.7.1 (edcfbbe)
N           -1.47811633269407       -1.63291243008091        0.22653513367407
H           -0.91867009769097       -0.90534416425944        0.65984453793973
H           -0.84529376869419       -2.30278566972679       -0.19558853059024
H           -3.10640111980106       -1.65497893882005        1.31434480349823
C           -2.37156854286651       -1.06451848007509       -0.78355662143839
H           -1.90886148968315       -0.28138456500362       -1.39889436954788
C           -2.89938113993494       -2.17285004885710       -1.69497041436163
C           -3.55859502289936       -0.46617467774066       -0.05835066539428
H           -3.34736236831707       -2.96344543356080       -1.09777842548237
H           -3.65697602233012       -1.76211553538677       -2.35429204548569
H           -2.09182080245451       -2.59389604063571       -2.29025721740894
O           -3.83113064599625       -1.02143121142636        1.13828446674427
N           -4.22628387943920        0.44810961407166       -0.60312610948144
H           -7.26998375552191        0.75334704926972        1.60467084278549
C           -5.41133952459879        0.94490615105933        0.05683591001460
H           -5.19082706453471        1.18828413528853        1.10865068906515
C           -5.85040994058260        2.20032373058908       -0.71867112432874
C           -6.50035805596282       -0.10102064018200        0.02922379782321
H           -4.98881988634579        2.86904021626843       -0.75705222012879
H           -6.05785341383088        1.87410183786891       -1.73858632947059
C           -7.05973925299648        2.95916125237730       -0.16438897208954
O           -7.48193216560806        0.03487338428831        0.99664013856009
H           -7.90757036433257        2.27286204223026       -0.06131434989180
C           -6.76093492162530        3.60052662440817        1.19112911989458
C           -7.46963055931865        4.04312838464627       -1.16076668271701
H           -5.94912910344240        4.31801873001745        1.09224966657126
H           -7.63802438260722        4.12716716248126        1.56128297699953
H           -6.46851354448165        2.86784772829043        1.94156539002250
H           -7.72937287692664        3.60148767455823       -2.11936197480042
H           -8.33221648968767        4.59342708643947       -0.79199077137989
H           -6.65331396274261        4.74528243739610       -1.31498624345101
N           -6.47762665741604       -1.00670087895795       -0.82914761564649
H           -8.87048037445568       -0.40259326391871       -0.07035218458733
C           -7.41242347284395       -2.09014028901561       -0.98282346713584
H           -6.96892803222949       -2.74809176352588       -1.73945100137834
C           -7.66194352971644       -2.89605614000281        0.29969304277192
C           -8.76595050045278       -1.62907438112401       -1.54475131839309
H           -8.17930832313615       -2.30253090683605        1.05033035445825
H           -8.26245259693621       -3.77167959022411        0.06595176185479
H           -6.70852780285399       -3.21797774823990        0.71267565106016
O           -9.38787966524207       -0.67568196809547       -0.85163500485810
O           -9.25023980510778       -2.11053650089097       -2.52887948975808
