42
 energy: -62.486133510599 gnorm: 0.000480299608 xtb: 6.7.1 (edcfbbe)
N           -0.81836365415356       -0.80923584879267        0.13327045626413
H            0.08516652489942       -0.80613725939197       -0.32364933301730
H           -0.94213586780334       -1.72544335985936        0.55560127245783
H           -1.84880346216774        0.28859088269086        1.31819524516103
C           -1.89254260438442       -0.55495659052934       -0.82709486753455
H           -1.57294807268033        0.28039053877157       -1.46306772683800
C           -2.25973135272520       -1.74569287876816       -1.70955772855875
C           -3.09618413449383       -0.05749909767445       -0.04023027919193
H           -2.53396742942058       -2.60040053948624       -1.09344218758438
H           -3.11147811558585       -1.48238433548986       -2.32777823441484
H           -1.42110738279292       -2.02259850142847       -2.34497618283407
O           -2.81211489590123        0.40971956837560        1.19383444989632
N           -4.23880569217871       -0.09907080646594       -0.56018738683658
H           -5.23496204803182       -1.52436204267034        1.46608241500159
C           -5.40163796071267        0.44064530263570        0.11732928116044
H           -5.16417744843613        0.75830499966439        1.14539941264292
C           -5.91680357090368        1.63096161058078       -0.69740925032702
C           -6.39575184302985       -0.69630420073992        0.18365587064712
H           -5.09090583192483        2.33462742246352       -0.82149626308521
H           -6.18753393887527        1.25473259922850       -1.68363380514388
C           -7.11056423801107        2.35284343412467       -0.06349334885412
O           -6.08968769900443       -1.69028894139225        1.04885903009226
H           -7.83584192936785        1.60270842906601        0.26438389206878
C           -6.68361158265785        3.18614568844402        1.14339341944749
C           -7.77777841125697        3.25047615932391       -1.10400803725592
H           -5.97044579792128        3.95092876238591        0.84239193318699
H           -7.54617745358285        3.67898277611807        1.58595872308158
H           -6.22081483033610        2.56867284164339        1.90888488475507
H           -8.14096053930470        2.66482625589091       -1.94479512502946
H           -8.62144986483726        3.77802068547086       -0.66542442474085
H           -7.07022506343178        3.98793425155522       -1.47732151448650
N           -7.41011357227769       -0.71631524356761       -0.55629986185094
H           -8.29995982210362       -0.04233774665013       -1.96666090448506
C           -8.35905492708999       -1.80437301646689       -0.55086609859589
H           -7.86049697088051       -2.78156394569225       -0.56845636684700
C           -9.28745215424571       -1.74411624814153        0.66717236290196
C           -9.21495535013908       -1.65713216543324       -1.81962687937354
H           -9.76731199751885       -0.76874132560805        0.72102502742631
H          -10.05154681941128       -2.51044385474041        0.57355401018852
H           -8.71704540989304       -1.91054100756422        1.57739674443207
O           -9.01311767123925       -0.51347933000720       -2.46115160983033
O          -10.00279037533286       -2.48811974742290       -2.17682594618075
