42
 energy: -62.486133513207 gnorm: 0.000479893654 xtb: 6.7.1 (edcfbbe)
N           -1.94983712048895       -2.38172914624420       -0.41511689834216
H           -0.97854787378572       -2.64576454560688       -0.52653769119782
H           -2.46494679052367       -2.77547685369708       -1.19808477641224
H           -3.35302098571967       -2.36980093223549        0.88605259711061
C           -2.09964580646908       -0.92731928383031       -0.40897566134171
H           -1.35150829450354       -0.52534990633814        0.28689265343024
C           -1.93381349449714       -0.26160681426015       -1.77250940733832
C           -3.46759404360694       -0.62694367893995        0.18749133645701
H           -2.64948064469799       -0.67734562205602       -2.47832144760521
H           -2.12595599060091        0.80104399625580       -1.67968850305368
H           -0.92642835983964       -0.41789919515953       -2.15310777604428
O           -3.96264560398397       -1.60801604844187        0.96942281797771
N           -4.01800587597883        0.47522098179599       -0.04653735297717
H           -5.71214501448815       -0.56016853181180        2.44455534403445
C           -5.32707944766308        0.85571343395947        0.44344651373611
H           -5.17917727132167        1.33467361223555        1.42323088232121
C           -5.88494840016933        1.88740451208480       -0.54446870768921
C           -6.26984468192212       -0.31690687736560        0.62191601986417
H           -5.13262630606549        2.66882820278918       -0.65794013994873
H           -5.99969517973472        1.38916255515015       -1.50677647306660
C           -7.22262009420496        2.50557373678043       -0.12848747262379
O           -6.42420954352943       -0.83883698812374        1.85625717561202
H           -7.92437066631894        1.69661229451824        0.09830870129937
C           -7.08099591614207        3.39292977093706        1.10654086530190
C           -7.78606978611238        3.32054799298313       -1.29119184531052
H           -6.34014037788149        4.17049082227287        0.93218376350166
H           -8.03064608993671        3.87079767252361        1.33642482457278
H           -6.77940277437667        2.81751602625069        1.97828527194904
H           -7.92832363080641        2.69220160082954       -2.16679114638526
H           -8.74562942920443        3.75634967115430       -1.02300133190683
H           -7.10446229747117        4.12684842682987       -1.55334679507121
N           -6.91717872401511       -0.73304639708960       -0.37549699284870
H           -6.99193112677568       -0.90763596870700       -2.16133157038198
C           -7.81430975626759       -1.86018299079745       -0.29135885932476
H           -7.45191720189018       -2.62869774951489        0.40333469432740
C           -9.21677415557411       -1.41988515527743        0.14206449182716
C           -7.90683722305582       -2.46126105602742       -1.70140334136166
H           -9.57700520857020       -0.62886423535551       -0.51294969744213
H           -9.89422056764835       -2.26710439644137        0.08360177755888
H           -9.18738647886759       -1.04975744708586        1.16404114626832
O           -7.36957746314437       -1.68665171953475       -2.63739057940122
O           -8.42523555226527       -3.51768995872301       -1.93430099129331
