42
 energy: -62.486133509291 gnorm: 0.000479875915 xtb: 6.7.1 (edcfbbe)
N           -0.88134373887604       -0.79643856459440        0.30571303927310
H           -0.56899028998593        0.10852866335326        0.64340838313284
H           -0.07078781986325       -1.29404186535710       -0.04323540972724
H           -2.38851256035293       -1.19755489323854        1.42224486183995
C           -1.88590519950940       -0.63888759780447       -0.74638648323369
H           -1.68201777720060        0.18751403949892       -1.44016851139501
C           -2.01650883365144       -1.93883591786549       -1.54148602513152
C           -3.20748600836234       -0.36762804249473       -0.05545119924619
H           -2.21890862382449       -2.77217986881313       -0.87116975525301
H           -2.83186483038092       -1.84949123894518       -2.25351535740760
H           -1.09608133647423       -2.14255491682388       -2.08420773244467
O           -3.29318161767222       -0.89201476571519        1.19897546051947
N           -4.11895034654532        0.25093404500031       -0.65017677749336
H           -4.98186580331970       -1.70371312536072        0.76419738914967
C           -5.40014838839263        0.53944561351032       -0.03608786766920
H           -5.26992645548259        0.71607034840228        1.04545576806924
C           -5.97508030017512        1.78485299094476       -0.71345407211067
C           -6.30673063753061       -0.66892435386631       -0.16258939351172
H           -5.16231847401530        2.50433940246517       -0.82673769713905
H           -6.30311830066248        1.49617532154338       -1.71147110228973
C           -7.13116655165666        2.43559395653098        0.05451626476738
O           -5.84711403170289       -1.82905114752815        0.34290786841193
H           -7.80448956941229        1.64701433142283        0.40214430704652
C           -6.62322802346538        3.21670886537874        1.26537737700084
C           -7.90826877623878        3.36897807626833       -0.87199915229807
H           -5.96477655486528        4.02250384919561        0.94677829507041
H           -7.45692228058391        3.65285376445961        1.81079901388322
H           -6.07319994056203        2.57575668627692        1.95010013838608
H           -8.32865542268815        2.82301445381324       -1.71275332507893
H           -8.72398498918672        3.84599089823306       -0.33389588029488
H           -7.25345783933449        4.14674828158561       -1.25941625354204
N           -7.44787721542531       -0.54659595793899       -0.67861340919955
H           -8.57892111959476        0.40632415877231       -1.70730596799305
C           -8.36604323801971       -1.65441589101263       -0.80200866395053
H           -7.86369401825050       -2.57117164769098       -1.13506883468900
C           -9.08953330287176       -1.93831975323653        0.51930721124007
C           -9.41543355831794       -1.25142950117027       -1.85020455668116
H           -9.56298296413567       -1.02975145329931        0.88665698575402
H           -9.85169026337901       -2.69477212913754        0.35505689408937
H           -8.37986385915778       -2.29452272041276        1.26187597600961
O           -9.34751766113093        0.02730538322735       -2.19834431448040
O          -10.22764273805861       -2.01638361949266       -2.29083244805883
