42
 energy: -62.486132280389 gnorm: 0.000624923919 xtb: 6.7.1 (edcfbbe)
N           -2.63913901787931       -1.91586432002288        0.81325198635823
H           -1.92390398838160       -2.27254072890450        0.19055007047318
H           -3.27350532599090       -2.68229452037362        1.02721662229194
H           -2.73876904198800       -0.93409152882198        2.31874067028949
C           -3.38261424985022       -0.81758531959104        0.18863701980095
H           -2.63321763174278       -0.09143517302343       -0.16664773536339
C           -4.18320181419739       -1.30082374423834       -1.01846063015181
C           -4.07080049488963       -0.03711981585354        1.34815177198934
H           -4.79342004526351       -2.15789328131575       -0.74965588438168
H           -4.82957037288929       -0.53306280147201       -1.42614694520200
H           -3.48703506560774       -1.61130898790485       -1.79884793332393
O           -3.40990753024557       -0.23403680652947        2.49411041850212
N           -4.92952772437428        0.87981543027204        1.38841995714825
H           -8.25709245330160        1.41086807058127       -0.39455613361066
C           -6.01622389523435        1.27688334624571        0.55663538239527
H           -6.61374115186607        1.94789205339470        1.19558364235678
C           -5.49972956056838        2.10900834178995       -0.64594472309990
C           -6.93777015024801        0.13229144396773        0.19029488291826
H           -4.80771114369045        2.83864392482704       -0.21816950210035
H           -4.91478866285274        1.45708727412126       -1.29597403546082
C           -6.52702455241685        2.86020158565477       -1.50204619344750
O           -8.14428193500714        0.45463520549917       -0.32753306892929
H           -7.21345809847741        2.14512708550619       -1.97072611291363
C           -7.32086909876635        3.88532999868217       -0.69176685421230
C           -5.78785301163215        3.57755961121491       -2.63351862234961
H           -6.64273357942085        4.61026408498500       -0.24697721518412
H           -8.01327822898482        4.41964768363160       -1.33898887026470
H           -7.89755506146663        3.43326143929588        0.11358962761494
H           -5.23745947061111        2.86809346197207       -3.24715098897855
H           -6.49197499403668        4.10614631424852       -3.27174086991616
H           -5.08310013744705        4.29994060024532       -2.22805126154439
N           -6.62010837381099       -1.04806914083902        0.48292626151798
H           -5.59455271944773       -2.07258386128832        1.54914207995266
C           -7.47446387245593       -2.19349987972146        0.28057188820409
H           -8.39810498792331       -2.08090909251092        0.86681869059649
C           -7.85772403302818       -2.46168943254070       -1.17605723715836
C           -6.71678379598834       -3.40113329821724        0.86084657959166
H           -6.96915395903910       -2.48040052387919       -1.80363552983341
H           -8.34827662161646       -3.42935208685190       -1.23387676157083
H           -8.53088802615367       -1.68995212788088       -1.53809712633276
O           -5.64508702729772       -3.05987546070930        1.57345141613944
O           -7.04978998051659       -4.53918799215023        0.68458560650002
