42
 energy: -62.486133488503 gnorm: 0.000483699832 xtb: 6.7.1 (edcfbbe)
N           -2.31001652221140       -0.31502224403870       -0.30272218212610
H           -2.17852957932031        0.63898374855253       -0.62243953663116
H           -1.86699082690058       -0.93412548922456       -0.97218505638811
H           -2.52831783065355       -0.28183590330808        1.72591367282939
C           -3.73127887017792       -0.63429915992167       -0.15944806764661
H           -4.33154150360374       -0.38898259435276       -1.04687606384582
C           -3.86781737259210       -2.12882251002202        0.13199662806952
C           -4.21933475570521        0.16028635019514        1.05741687471512
H           -3.32930348532329       -2.39388863903138        1.03873937566455
H           -4.91428530485317       -2.38136884960053        0.25875473601531
H           -3.46014677313078       -2.70797575285852       -0.69495555179679
O           -3.35238459204769        0.11082739675638        2.07162040749342
N           -5.26939997308828        0.83480797890514        1.23129420421054
H           -8.25548043585971        1.02062993885071       -1.13928861283938
C           -6.30233027245043        1.08283556702058        0.27122141902182
H           -6.98337014860176        1.77278725325994        0.79860360247198
C           -5.83102540649606        1.78474023710699       -1.03167421264145
C           -7.16134445944197       -0.12311446195256       -0.04038847497906
H           -4.74846700250210        1.91021811329241       -0.98205391314288
H           -6.05161324000586        1.15312636287609       -1.89770544279196
C           -6.45554741653773        3.17231804676888       -1.23678640624290
O           -8.20947994356465        0.09506319746807       -0.86841833589978
H           -7.53828948709281        3.11699873926479       -1.05984469983099
C           -5.85755727090986        4.17398031522144       -0.25224294836207
C           -6.23344361662621        3.64019869275993       -2.67410545325009
H           -4.80655211131018        4.33888311165556       -0.47906134320946
H           -6.37552420617224        5.12788570664130       -0.31524378323022
H           -5.92849544404607        3.80602929135995        0.76802250159420
H           -6.70113378640533        2.96053399634888       -3.38411161048358
H           -6.65771994849231        4.63042201028620       -2.81974477473126
H           -5.16960840334203        3.68889137007452       -2.89580539356982
N           -6.93028317081966       -1.24175306810440        0.48413814611120
H           -6.36986395510969       -2.06811148192949        2.05784635246575
C           -7.79162460058966       -2.38139358974554        0.25804144587510
H           -8.84933573509998       -2.09630595342666        0.35032863814601
C           -7.58657225088728       -3.02141942332950       -1.11724175718486
C           -7.49411054064614       -3.40934401757416        1.36192857606486
H           -6.53452032640909       -3.24848877017150       -1.27592898856639
H           -8.15597633562379       -3.94537101564081       -1.16156126083239
H           -7.92769337695931       -2.34721440416798       -1.89860624256571
O           -6.65041780300865       -2.98043696803995        2.29315253561325
O           -7.98887914737131       -4.50179330907594        1.37953084519837
