42
 energy: -62.486132278492 gnorm: 0.000625387280 xtb: 6.7.1 (edcfbbe)
N           -1.76382345630106       -2.08666280978938        0.29184650556485
H           -1.30362539236747       -1.64976602646014        1.08394015473177
H           -1.07198547002142       -2.63402219314199       -0.20673905907370
H           -3.61279341104805       -2.27463577426621        0.90086161809357
C           -2.34999240480531       -1.07470746392501       -0.58675643116419
H           -1.70702016623987       -0.19969285678558       -0.75315522208203
C           -2.70389397245150       -1.70342294064176       -1.93522898167300
C           -3.64420319700624       -0.60850199130940        0.05071819419246
H           -3.34473891924702       -2.56923537164448       -1.78516627594663
H           -3.23513427774630       -0.97749634411790       -2.54234722021798
H           -1.80237906579937       -2.01706433975051       -2.45755119137466
O           -4.22738998655878       -1.51401922029123        0.85789072361703
N           -4.07301273769518        0.54319594269033       -0.20729205568583
H           -7.06406268993464        0.52846121887316        1.94898981165472
C           -5.36153001239683        0.99899597654906        0.25857476740332
H           -5.24911917227075        1.34451971126397        1.29810674984032
C           -5.77137169330677        2.17577716790547       -0.64344019755860
C           -6.42814234595723       -0.07023411646271        0.20486936427634
H           -4.93759924047066        2.87847580926731       -0.66262187647109
H           -5.89097434254046        1.76903901375946       -1.64816181930194
C           -7.05531930090707        2.89812322683655       -0.22374540683557
O           -7.32311332431682       -0.09388458431988        1.25919922466032
H           -7.84986924779675        2.15982863002072       -0.06666010382123
C           -6.86140382193239        3.70305284114069        1.06087194196919
C           -7.50319859551842        3.82907480162026       -1.34909453793308
H           -6.09730687717060        4.46327477765571        0.91349942915174
H           -7.78854994025964        4.19948473158247        1.33875644181354
H           -6.55513301328251        3.07486154422372        1.89494684750253
H           -7.70417277437764        3.26268785108877       -2.25473905486573
H           -8.41068065650013        4.35842048446380       -1.06802300212048
H           -6.72902224594561        4.56215740837955       -1.56482878465371
N           -6.47704013944068       -0.83542195713432       -0.78108122729069
H           -8.79932854402479       -0.41158183542162        0.25971114486301
C           -7.40699080107424       -1.90977980193008       -1.00877814849907
H           -7.02149570935113       -2.44411240728697       -1.88518023538169
C           -7.53963240847951       -2.89263845751758        0.16268373556619
C           -8.80517596126612       -1.39959647147380       -1.38724245520505
H           -8.02132711637616       -2.42921799110202        1.02086544643450
H           -8.12622022182182       -3.75281548680004       -0.15034339947904
H           -6.54880148931067       -3.22418773066247        0.46419903544216
O           -9.37641532121680       -0.57332793213303       -0.51069974887049
O           -9.36320178151909       -1.73543112966795       -2.39271949500567
