42
 energy: -62.486133529589 gnorm: 0.000477242154 xtb: 6.7.1 (edcfbbe)
N           -2.21633974011512       -2.35396433370654       -1.18515931215640
H           -1.28588398500843       -2.75289364794700       -1.20535615776401
H           -2.52959597305626       -2.25399115631693       -2.14677483495053
H           -3.92395999883762       -2.59861073767920       -0.37028153868670
C           -2.21824989634093       -1.05215643816152       -0.52266305420957
H           -1.64629225077916       -1.15858983950024        0.40809999613140
C           -1.62653960060683        0.08652727974308       -1.35041698675366
C           -3.66108221860345       -0.75365349223827       -0.12485569670807
H           -2.17362563383733        0.19189968231054       -2.28527123794778
H           -1.71280014888134        1.01537241475236       -0.79716503414101
H           -0.57897871209199       -0.10829363675071       -1.57148098316930
O           -4.45422740173917       -1.83446279832063       -0.06100414905112
N           -3.97707915383838        0.43036598711352        0.15011642777268
H           -5.48078056889423       -0.19552869214996        2.64536608707386
C           -5.30489404994665        0.89445197584725        0.48925822879298
H           -5.16163574237009        1.56905761452577        1.34599079930378
C           -5.81896425633520        1.71143262053790       -0.70544932599394
C           -6.26381115069899       -0.20404803178090        0.88867049572048
H           -5.04008955207756        2.42948695061163       -0.96793516073967
H           -5.94469710083313        1.02576152548584       -1.54418490907149
C           -7.13831991822455        2.44639364408719       -0.45230644765287
O           -6.20675936115356       -0.62248273305664        2.17459561669966
H           -7.87791447633040        1.71909778480882       -0.10442801559876
C           -6.98925806877662        3.54210279976375        0.60105272771724
C           -7.63477658811153        3.05197291511228       -1.76423558102109
H           -6.19322687742163        4.23033347912390        0.32414684439567
H           -7.91470375429793        4.10693750299458        0.68717093927123
H           -6.76226510043972        3.12601546993616        1.57934722112869
H           -7.77568086816051        2.27901675614875       -2.51557448759816
H           -8.58454612066993        3.55987249134362       -1.61436536733518
H           -6.91591789955867        3.77501362806481       -2.14403005364269
N           -7.03835070452492       -0.71096511500000        0.03685222550009
H           -7.16590621899875       -1.17314629947682       -1.68309902689277
C           -7.89556753772666       -1.82949093272158        0.34199069086898
H           -7.46659929975541       -2.48524374815304        1.10998511601129
C           -9.27906754230187       -1.35611310463421        0.79873283713885
C           -8.05785344823915       -2.63175913687280       -0.95807222677099
H           -9.69900732180409       -0.67199988675400        0.06379310529151
H           -9.93631678211532       -2.21484738040014        0.90214653739535
H           -9.19951341537689       -0.84426498946314        1.75491887033634
O           -7.56480795147683       -2.01094076820953       -2.02319819766964
O           -8.59030484501256       -3.70569142447951       -1.00599188380388
