42
 energy: -62.486133509781 gnorm: 0.000479397942 xtb: 6.7.1 (edcfbbe)
N           -1.44634678199977       -1.67710498233413        0.45315133425826
H           -0.49978113633725       -1.90360402569026        0.17157095097530
H           -1.93985202938788       -2.55530002911643        0.59163005060176
H           -2.44613091396103       -0.58154808441190        1.68344731235030
C           -2.12213132770281       -0.89499862714919       -0.58300078958697
H           -1.43952621225425       -0.08809633519342       -0.87831220811407
C           -2.53066532615022       -1.68981764535551       -1.82027670590798
C           -3.32947122497974       -0.23443935440928        0.06224653247630
H           -3.18077930262570       -2.51350605517387       -1.53525931161513
H           -3.08285311851574       -1.04307054066074       -2.49192261103716
H           -1.65381099993609       -2.08613246561797       -2.32853152524733
O           -3.27780279977802       -0.14565212110639        1.41038147587589
N           -4.26579488540776        0.19360170670705       -0.65558726590172
H           -6.67157819055115        0.51291593708858        1.99330788039174
C           -5.40085747658331        0.85540371501475       -0.05623286818469
H           -5.12656588603756        1.31536261383901        0.90683465423792
C           -5.89427653448974        1.92143358996151       -1.04672906413176
C           -6.49812923482403       -0.15806586393810        0.16959544002706
H           -5.07227223616017        2.61255635826837       -1.24088148384766
H           -6.11988490694227        1.39262928061863       -1.97266500252101
C           -7.12796162600631        2.69958613967856       -0.57840669988999
O           -7.11354512587171       -0.11591119036080        1.40966485678395
H           -7.89815064446723        1.98850342689998       -0.25889940408795
C           -6.80342124309206        3.63617566675050        0.58485749704717
C           -7.69347511071383        3.50629738342185       -1.74554926343617
H           -6.05102397738186        4.36198900582085        0.28318018106171
H           -7.69553889865897        4.17679074951299        0.89306212012440
H           -6.42465408748532        3.09552348275498        1.44952430322609
H           -7.97479874564764        2.84721532295814       -2.56262635911461
H           -8.57548655037811        4.06057292189386       -1.43341213955949
H           -6.95295540743946        4.21428513224351       -2.11142177090160
N           -6.79901945650712       -0.95862232447274       -0.73941740456273
H           -8.79800974235233       -0.37453503840368        0.78831862981743
C           -7.80190461154497       -1.98924948919043       -0.70136871775042
H           -7.65547810840778       -2.56919705730270       -1.61989894969105
C           -7.70852934982717       -2.93125170056507        0.50736755962426
C           -9.22751373486808       -1.41849226253578       -0.76780871619465
H           -7.91090420008635       -2.40815610884011        1.43941908365069
H           -8.42705078080255       -3.73908874823611        0.39242875991368
H           -6.70715236962191       -3.35301128477890        0.55834930649716
O           -9.54187418067420       -0.53210020410911        0.17681009486967
O          -10.01923278094710       -1.76191654260318       -1.59800457644632
