42
 energy: -62.486133515273 gnorm: 0.000479440737 xtb: 6.7.1 (edcfbbe)
N           -1.28892467339781       -0.45790058598062        0.54015232793354
H           -0.51785533986322       -1.03801182467081        0.23323149923669
H           -1.23454072222464       -0.38975102382391        1.55289919170981
H           -2.09760648824857        1.19531553850866        0.13817160509433
C           -2.57340553543484       -1.04848096403128        0.15585938534680
H           -2.47984719587858       -1.38996412514708       -0.88242508600414
C           -3.01199409135648       -2.21741816730782        1.03348489725427
C           -3.60312549986874        0.07569617015729        0.15077013962253
H           -3.13676773294954       -1.88663182886124        2.06233714693830
H           -3.96008161863663       -2.60840522741013        0.68330415649418
H           -2.26600621909712       -3.00950459050562        1.00434578948234
O           -3.07043614906216        1.31424807908661        0.09930735868400
N           -4.82415780462053       -0.20848237375240        0.19677357711340
H           -8.14243686037937        1.65518516143811        0.51836512572459
C           -5.87719910109999        0.77818818679044        0.14472248677088
H           -5.82570208771221        1.43454388659685        1.02543481869315
C           -5.76250588001036        1.62526218611096       -1.14686385590689
C           -7.18562429291641        0.01917680205481        0.16074995225336
H           -4.75377277772081        2.03889296970623       -1.16802108199496
H           -5.85860041579617        0.93417582510655       -1.98799202854610
C           -6.74902532195710        2.78379329102244       -1.33233371766375
O           -8.32725994898528        0.72138405134298        0.36136153226696
H           -7.77395351606309        2.39998589129620       -1.38256047465283
C           -6.63928077634962        3.81768240080263       -0.21131861358836
C           -6.45547936172087        3.46027541210028       -2.67251903449615
H           -5.62126245993049        4.19758395822707       -0.15655041842188
H           -7.30661328345791        4.65486306412068       -0.40510342042597
H           -6.89491527270439        3.40763736883042        0.76472019585630
H           -6.53980636806745        2.74761731623299       -3.48943581185300
H           -7.15798245847778        4.27100094094349       -2.85168143304315
H           -5.44828011256936        3.87116702136735       -2.67757573509541
N           -7.16559021621488       -1.23096526886161        0.06668054764364
H           -6.15968811582982       -2.65182983474601        0.12607554124226
C           -8.32793562248115       -2.07659316502729        0.11937312634533
H           -8.99471930148262       -1.81046162539795        0.94998105871736
C           -9.12861521532865       -2.04650406119137       -1.18629240620158
C           -7.79670657781199       -3.50583348585133        0.34269793313649
H           -8.47177600530519       -2.25753705601919       -2.02770503020894
H           -9.90828088861200       -2.80195583264456       -1.14532775527831
H           -9.57962283051641       -1.06693641219433       -1.32396862004524
O           -6.47586374765458       -3.58429949495609        0.27389558841121
O           -8.51294334381319       -4.44823439892067        0.54191446325880
