42
 energy: -62.486133510754 gnorm: 0.000479773205 xtb: 6.7.1 (edcfbbe)
N           -1.97734674843812       -1.33187289626311       -0.39893299299608
H           -1.36995750737397       -2.11597160609306       -0.19394201496718
H           -1.42983758936754       -0.48328788103038       -0.28353810357308
H           -3.28408868733747       -0.80832345328087       -1.72488526573053
C           -3.12348076530313       -1.30947635197464        0.51099599758297
H           -3.54134430395328       -2.32452786851790        0.53089876518435
C           -2.80425461117248       -0.87405916351776        1.93783279687305
C           -4.18837632256254       -0.42764100419491       -0.12571427652063
H           -2.36069505388328        0.11927074113012        1.93786742970724
H           -3.72224001588193       -0.83909985306112        2.51313241230319
H           -2.11179738050282       -1.57224783568326        2.40269217516233
O           -4.10018869817965       -0.33421797912360       -1.46547505870379
N           -5.07188918126531        0.08639100679751        0.60379580109763
H           -8.17997017646779        1.27304480175287       -1.27881980061481
C           -6.17381800582335        0.86510729439280        0.09149203995484
H           -6.53449569622612        1.43487997048080        0.96179229317486
C           -5.84741922239778        1.85082861542360       -1.04881803964952
C           -7.28794832159535       -0.10027648864069       -0.27193453420300
H           -4.77541939362383        2.05067346260765       -1.02405653195846
H           -6.05330258689448        1.37662720471094       -2.01187829236568
C           -6.58626460072782        3.19482447260275       -0.93593888690605
O           -8.32142173604169        0.35657426093238       -1.00938295852379
H           -7.61998285064260        3.03386341696946       -0.60017085160872
C           -5.90503361563575        4.09612733438257        0.09213446875861
C           -6.62741395943238        3.88761786064467       -2.29727813112739
H           -4.90081648868664        4.35162079698689       -0.23887335732810
H           -6.46742613400893        5.01783793296614        0.22369064360034
H           -5.83042908889474        3.59964936004309        1.05668710457087
H           -7.16087035320730        3.28497463804402       -3.03008761121177
H           -7.12649596737042        4.85081545627903       -2.21997119288556
H           -5.61723723038204        4.05421666227723       -2.66421795856644
N           -7.21232926276799       -1.27922812804074        0.15504710237795
H           -6.35539100736029       -2.40584096605989        1.22231565245256
C           -8.19268049769165       -2.30409729223746       -0.09866228239589
H           -9.19649037627251       -1.98430413087458        0.21033632152177
C           -8.24130451453474       -2.73278418165080       -1.56840418170836
C           -7.78188521517859       -3.51402409572981        0.76086255986873
H           -7.23869314929674       -2.97585174960606       -1.91484749463747
H           -8.87318164709259       -3.61157803276773       -1.66133774334916
H           -8.64318903581863       -1.92967028936983       -2.18028550164211
O           -6.65025239594031       -3.32884022511923        1.42816115706407
O           -8.41953188443187       -4.52974946258595        0.80665316224541
