42
 energy: -62.486133502369 gnorm: 0.000480066397 xtb: 6.7.1 (edcfbbe)
N           -1.20369590974255       -1.81611063374940        0.42958047120428
H           -1.24266188688685       -1.90541227154928        1.43966930461346
H           -0.23092572681716       -1.85923470676754        0.14943808201584
H           -2.81826047473003       -2.59119457502444       -0.16710486202844
C           -1.81650089515696       -0.56131165117380       -0.00450427912902
H           -1.59812815057864        0.29210239196825        0.65042418399307
C           -1.36526848480460       -0.23050349313112       -1.42748916586598
C           -3.32486947645834       -0.78077500622834       -0.02073493866856
H           -1.57906734344661       -1.06450134799984       -2.09307295655821
H           -1.89308958002278        0.64983108707096       -1.78152625563350
H           -0.29585874422076       -0.03202198619192       -1.44952047565373
O           -3.65941120735880       -2.08590990697240       -0.22184109133872
N           -4.07092308900559        0.20775633201727        0.10707243643382
H           -5.26966840533766       -1.94118779513084       -0.82218204328914
C           -5.48551738945287        0.43568548053886        0.09883861371945
H           -5.70143657807704        0.91568345598895        1.05890648502702
C           -5.69063255596019        1.48630234118607       -1.02711092134689
C           -6.51277758089054       -0.66712860943561       -0.09617155792343
H           -4.86764359148308        2.19752410319935       -0.93515353011611
H           -5.58053570192652        0.97211509603066       -1.98577346086078
C           -7.01668582692833        2.24868615544747       -1.01755998431616
O           -6.22917888405410       -1.78931510274433       -0.76462709340848
H           -7.83897958786187        1.53010288730500       -1.06518940956230
C           -7.17847516239354        3.09729245407829        0.24027615662630
C           -7.08752585781628        3.13996889612347       -2.25746634364405
H           -6.36499622208925        3.81561291764045        0.32029927169791
H           -8.11758707414297        3.64333380245200        0.20245403256761
H           -7.18480984099193        2.48040742223720        1.13447773255500
H           -7.00059384781662        2.54841149626498       -3.16600327720723
H           -8.03596711298862        3.67009217633067       -2.28600155172446
H           -6.28397700289603        3.87375995353782       -2.24645254071359
N           -7.68748062207845       -0.39203207878542        0.28787271555295
H           -8.91736655016980        0.79802557534247        0.89479757735214
C           -8.78592967065741       -1.30472479255104        0.05712196267201
H           -8.78488022995374       -1.68963058089721       -0.97093099220262
C           -8.76134156146181       -2.49248850075778        1.02604558212720
C          -10.08564507325066       -0.52124314176356        0.28753999067809
H           -8.71497894559418       -2.13302528949616        2.05227233535139
H           -9.66532455744180       -3.08039249845041        0.89452014594330
H           -7.89263056096812       -3.11506669117621        0.82760205706519
O           -9.89374670604075        0.68168616997975        0.81621592242126
O          -11.17121758867511       -0.96319521894310        0.02992645308851
