42
 energy: -62.486133517114 gnorm: 0.000479337790 xtb: 6.7.1 (edcfbbe)
N           -0.80075263444982        0.02238609593095       -0.93618159874491
H           -0.03474244638510       -0.41366933382131       -1.43467302251356
H           -0.49839434822979        0.17341940369364        0.02221932326956
H           -2.03956742280471        1.45126592762623       -1.18095276861941
C           -1.99176729292520       -0.82452448487089       -0.95565689246875
H           -2.13292872949894       -1.15939026513074       -1.99186548673407
C           -1.91360683967742       -2.04539559199922       -0.04067130614691
C           -3.18407211372984        0.07454840038762       -0.62836407827265
H           -1.87395817297390       -1.73446585612124        1.00109696031474
H           -2.78453066216260       -2.67661750704912       -0.18133164380905
H           -1.02218151122204       -2.62632845467137       -0.27058768863654
O           -2.97359681185258        1.37094131453015       -0.89482666255904
N           -4.21921732976638       -0.45595991627837       -0.15733003631765
H           -5.09968746863591       -2.10702059297617        0.16168814478399
C           -5.49277827086312        0.15451140335283        0.15688710724984
H           -5.50654716303634        0.27522483807057        1.25098402580995
C           -5.85154671062579        1.49086456546609       -0.50047799734549
C           -6.50814228523185       -0.93472121921819       -0.16573228605948
H           -4.96744047339899        2.12560399625017       -0.52731163770994
H           -6.15557110730615        1.29089833142106       -1.52928571851947
C           -6.97009502743814        2.24059417517500        0.23550235651346
O           -6.06387901854236       -2.18633974337639        0.01709201631182
H           -7.74690563732641        1.52394364542795        0.51579557062282
C           -6.44184101518905        2.91216112118394        1.50204936777822
C           -7.58071396527157        3.29328064924907       -0.68770891972339
H           -5.68065972435882        3.64832409335663        1.25094682451986
H           -7.24904704675304        3.41955745387601        2.02523700438597
H           -6.00379057077609        2.18745377901582        2.18458970837453
H           -8.00761662285165        2.83410718165596       -1.57582180970746
H           -8.36945362307120        3.83794954320380       -0.17421179663138
H           -6.82058340170477        4.00638359381381       -1.00058965562338
N           -7.65816459774802       -0.63952303171691       -0.58404267615050
H           -8.73865092407285        0.54803867446259       -1.42371157206552
C           -8.63381258940731       -1.65571676520412       -0.90527591914505
H           -8.17843848427676       -2.52465428177960       -1.39768797215927
C           -9.37687000431994       -2.13066012500410        0.34811693395448
C           -9.65169388931493       -1.01775261702091       -1.86204956152632
H           -9.80124975851503       -1.27739402000901        0.87369101595977
H          -10.17785212297152       -2.80456158549212        0.05781447166684
H           -8.68852183095657       -2.64931663040956        1.01086826935483
O           -9.51627414537029        0.29791008684901       -1.97739820227992
O          -10.49904746600393       -1.64738211591886       -2.43189717785407
