42
 energy: -62.486133516639 gnorm: 0.000479375212 xtb: 6.7.1 (edcfbbe)
N           -1.41082384229494       -0.61548829435190        0.84092381726880
H           -0.51840045370759       -1.02637813985637        0.59548384094021
H           -1.67237734498263       -0.97843416990148        1.75369471954702
H           -2.30310737679545        1.08267856118105        0.91853022192096
C           -2.43663833109559       -0.96809195200765       -0.14065729423484
H           -2.00451607425454       -0.80740646837092       -1.13683964102599
C           -2.95266426358122       -2.40138489006403       -0.03915317400624
C           -3.57021749699382        0.03591807499334        0.01327041292202
H           -3.34551169410325       -2.58639812125752        0.95842526461709
H           -3.75749557593857       -2.54316827927481       -0.75193267364342
H           -2.15381394806190       -3.11112733261143       -0.24471280404956
O           -3.23085468186404        1.18580397707087        0.62333812777629
N           -4.71261250374564       -0.24983481649100       -0.42407834327532
H           -7.18069692601875        0.58664715895862       -2.38651726998368
C           -5.81864617849842        0.68402180234487       -0.31381754367517
H           -5.89880733825354        1.02118330206954        0.72805539538550
C           -5.63006782187147        1.90812627871465       -1.21834799814318
C           -7.05025216868175       -0.14705446619186       -0.62130305294906
H           -4.68907664582492        2.38003835036982       -0.92989106905228
H           -5.50761261406408        1.57842895012437       -2.25683658977498
C           -6.75405753774553        2.94910994220259       -1.11363427322838
O           -7.63771735045404       -0.05538166363462       -1.82883507928520
H           -7.72821590510199        2.45872926989828       -1.22447210821139
C           -6.73298841377246        3.65116949755825        0.24233737433816
C           -6.60148881152898        3.97719808034946       -2.23455879637361
H           -5.76349093413199        4.11297858206374        0.41569194903350
H           -7.49472377432275        4.42671487168629        0.27460174963090
H           -6.93171553593305        2.95159260964840        1.04986744314076
H           -6.64917843893835        3.50344750276584       -3.21342557133313
H           -7.39332357826632        4.72014763467810       -2.17882176941255
H           -5.64539247476279        4.48899448787960       -2.14840594364031
N           -7.42719515191492       -0.96610778285754        0.25775645559678
H           -7.34090419797071       -1.57859000005518        1.94031215646276
C           -8.52677645752702       -1.87940968899971        0.04859474791916
H           -9.40233982676128       -1.37689857329840       -0.38110569638116
C           -8.12888871709039       -3.04771769356431       -0.86081588872495
C           -8.90242796918454       -2.44766701163794        1.42563190849624
H           -7.23126879382258       -3.52582351017876       -0.47402558983444
H           -8.93766405358788       -3.77249510892432       -0.88945318362638
H           -7.93069589816174       -2.68416054885650       -1.86553421485857
O           -8.01816238280647       -2.15478919131306        2.37144429018222
O           -9.88338176758492       -3.11114706220327        1.61815079870205
