42
 energy: -62.486133508842 gnorm: 0.000480481820 xtb: 6.7.1 (edcfbbe)
N           -0.81225630123312       -0.74940942011391        0.23604645895559
H            0.10808220269575       -0.70969779653979       -0.18415635142920
H           -0.92263869471466       -1.67550104784271        0.64045476537266
H           -1.91969313862495        0.30593492619715        1.39478390214592
C           -1.85521902768494       -0.51268833379310       -0.76233561950718
H           -1.53530736133483        0.33960636796577       -1.37563049748792
C           -2.15487589378468       -1.70157856628206       -1.67334256758797
C           -3.10200112961013       -0.05747516931724       -0.01721977845504
H           -2.42263708374164       -2.57420011511269       -1.07915335756038
H           -2.99213301836321       -1.45548328688193       -2.31786331146351
H           -1.28668652979530       -1.94332785170976       -2.28285470127861
O           -2.87965892234809        0.40369976425068        1.23035562867415
N           -4.22113197175797       -0.12034853423643       -0.58525888739122
H           -5.11766143291344       -1.77776541242794        1.03167614467167
C           -5.42608808068236        0.37457634132363        0.05177060072496
H           -5.24221444586336        0.65538727237348        1.10177416055342
C           -5.92654423348797        1.58954978972331       -0.73544457659106
C           -6.41121572085869       -0.77281232501554        0.04352720527590
H           -5.08282398706077        2.26775967438257       -0.87915356525247
H           -6.24256461577155        1.23576876437196       -1.71649518409647
C           -7.07182724532537        2.34261120428118       -0.04931479007643
O           -6.02518181087280       -1.87899436360291        0.71797158706592
H           -7.78828975315293        1.61034357786053        0.33344632872325
C           -6.55992015871087        3.18750969973653        1.11596710844051
C           -7.78256742645292        3.23662738466805       -1.06382239674572
H           -5.87324564648103        3.95148168232168        0.75619551828194
H           -7.38859899284709        3.68218072617946        1.61747587222752
H           -6.03814957816011        2.57792219497057        1.84954010002148
H           -8.21159956469316        2.64660293276531       -1.86980467928718
H           -8.58449418709622        3.79214859322658       -0.58354868018391
H           -7.08280982177474        3.95021071124173       -1.49397938871569
N           -7.50293099262497       -0.68781862343927       -0.57203847153184
H           -8.53681797122625        0.17108847480915       -1.77352085179736
C           -8.45640602126196       -1.77155997083863       -0.61591511082978
H           -7.97100310260317       -2.73540903677445       -0.81405863079093
C           -9.25483558018340       -1.87785806769720        0.68796922031126
C           -9.43516992718560       -1.46069581100503       -1.75970729368774
H           -9.71821190053462       -0.92057685236662        0.91936959423353
H          -10.03081132213177       -2.62931217275186        0.57338300189849
H           -8.59495643493647       -2.15994006139320        1.50451064520030
O           -9.29564656160651       -0.23752590405705       -2.25502740486368
O          -10.25744787663605       -2.24305719580562       -2.14763670843712
