42
 energy: -62.486133510149 gnorm: 0.000480376800 xtb: 6.7.1 (edcfbbe)
N           -1.52373595077444       -0.54176262862536        0.00168323578286
H           -0.83574919700557       -1.26699662978629        0.17552982108430
H           -2.05022991103588       -0.38334324976210        0.85467187373976
H           -3.90571371904795       -0.23830123934721       -2.82962564117116
C           -2.44845492281287       -0.96176461912716       -1.03323109373029
H           -1.97715916017461       -0.74748408519422       -2.00573001631745
C           -2.81988924385588       -2.45573480677567       -0.97778702673021
C           -3.74215827487829       -0.18531798998124       -0.91447176401785
H           -3.26092819612845       -2.67940682481616       -0.00939771221612
H           -3.54554947810849       -2.70379049372561       -1.74879729232408
H           -1.93195928949974       -3.06899522032213       -1.12002024229670
O           -4.36852248774598        0.12923077211141       -2.06597129547946
N           -4.16267978615101        0.07742442059514        0.24111391555359
H           -7.61368617782552        0.64085523665127        1.57041262457981
C           -5.43914204962736        0.68797818991869        0.50744559286623
H           -5.42885351118627        0.89663005253488        1.58751367070046
C           -5.66156748384110        2.00401678094674       -0.26874427573439
C           -6.55265160643408       -0.29551959856050        0.22958324893752
H           -4.74472040785850        2.58900043860481       -0.16244814656467
H           -5.77614536373180        1.75057310833699       -1.32270101169380
C           -6.85345035367838        2.86255571917856        0.16884680844483
O           -7.71983661014521       -0.08390635305650        0.94215656132024
H           -7.77739585121919        2.27873030449808        0.08689206495476
C           -6.70617827826730        3.38294553745550        1.59883456374685
C           -6.98039516935396        4.04639539699153       -0.79043723211602
H           -5.80107423024502        3.97999058904144        1.68606296038303
H           -7.55544554503045        4.01138021069396        1.85876684025705
H           -6.64827095732263        2.58056936625093        2.33260549456174
H           -7.12222633873553        3.69836711522358       -1.81051918683761
H           -7.83068763383182        4.66787829200439       -0.51909267317320
H           -6.08214758507561        4.65900362911900       -0.75753210925326
N           -6.39106540184353       -1.21506128073951       -0.59931490694633
H           -8.84115620817861       -0.41729715728912       -0.46793619754029
C           -7.33994377916833       -2.22526193769003       -0.98477973354074
H           -6.77421164312316       -2.93683789219386       -1.59781689954237
C           -7.99247848232955       -2.97930895422578        0.18162432173621
C           -8.44358979381331       -1.65023977449269       -1.88602439827164
H           -8.61760932052586       -2.32419214479184        0.78421076436492
H           -8.60387203082398       -3.78854313445798       -0.21017935552384
H           -7.21659280401914       -3.39839766992978        0.81851219030997
O           -9.14850926650881       -0.64691985028295       -1.36478393290255
O           -8.67055779006698       -2.08116739319920       -2.98018911749034
