42
 energy: -62.486132360550 gnorm: 0.000609331524 xtb: 6.7.1 (edcfbbe)
N           -2.80645734667271       -1.76878062980542        1.84885850655197
H           -1.89792993807190       -2.19624389996014        1.97835981287288
H           -3.50650874702279       -2.50437981979775        1.92061292602684
H           -3.99156000278396       -0.43872183203684        2.45054836401865
C           -2.90143613868349       -1.12154584063144        0.54261128131077
H           -2.00769891372984       -0.49877657272028        0.41249021460573
C           -3.02344939776285       -2.08756626048919       -0.63566148182526
C           -4.10679516332438       -0.19575145991231        0.59441179574214
H           -3.88281340877321       -2.73881082072656       -0.49003076146451
H           -3.16943255408026       -1.52301494099394       -1.55011532552650
H           -2.12727723930674       -2.69844535261116       -0.72365096341452
O           -4.56910679555050        0.05909215495786        1.83274644244300
N           -4.59500478157512        0.26820665223051       -0.46809372271713
H           -7.92253785323763        1.11228589008570       -1.71981604508641
C           -5.80892981326149        1.05545457598001       -0.41430038057130
H           -5.87066183625757        1.61098245372872        0.53424126935593
C           -5.81129983472495        2.03350248312841       -1.59498286206146
C           -6.97372395301778        0.07272346376207       -0.41522706592392
H           -4.77784460995594        2.34918838493595       -1.74759198160501
H           -6.10362286024067        1.50351178743876       -2.50649101119971
C           -6.68543462342302        3.27918490177303       -1.37534132884231
O           -8.04518212677645        0.31180153827997       -1.19308926838430
H           -7.62275965057787        2.99619565397846       -0.87873790302703
C           -5.97069612658188        4.28562179983666       -0.47545608905616
C           -7.02461740963561        3.92956245581358       -2.71619638429621
H           -5.06284728910705        4.64263883515540       -0.95666861687916
H           -6.61275375037152        5.14040318158203       -0.27560088025666
H           -5.69865508972338        3.83505891714621        0.47582523212141
H           -7.58806368204799        3.25222365446850       -3.35580328758887
H           -7.62103131795042        4.82600485727099       -2.56370362936162
H           -6.11261370310393        4.21081192562690       -3.23787745526194
N           -6.87184669613749       -0.92872833234323        0.33777333360706
H           -5.89858070647726       -1.68483296088454        1.58761507855657
C           -7.81806147324868       -2.00770106442925        0.45190435778694
H           -8.75426539056869       -1.65552305057696        0.90627586833233
C           -8.13893482702708       -2.70662740716086       -0.87100235622119
C           -7.18188246329189       -3.02189252738716        1.42366855160029
H           -7.21440454608414       -2.96121609990756       -1.38583398461788
H           -8.69151632393557       -3.61841117983015       -0.66169146723371
H           -8.73242833081239       -2.05861304988518       -1.50938407108845
O           -6.03959418413129       -2.59921399036995        1.95331566553961
O           -7.66593036881776       -4.09168431751957        1.67002485703305
