42
 energy: -62.486133506023 gnorm: 0.000480599099 xtb: 6.7.1 (edcfbbe)
N           -2.48584358045057       -1.93171229116397        1.62035854972141
H           -2.61153001555135       -1.56224683283521        2.55676645711810
H           -1.55569930872914       -2.32771698056355        1.55935115997976
H           -4.26382420941758       -2.40932587632013        1.15878357949348
C           -2.67705798995455       -0.88526015767277        0.61925645485839
H           -2.21456433299808        0.07537558210007        0.88330630784279
C           -2.12344846239319       -1.35373151453756       -0.72663924362941
C           -4.18355362758445       -0.67083389747906        0.47502180505377
H           -2.58201089024388       -2.29833659316509       -1.01101414315447
H           -2.34107504250179       -0.61055550620358       -1.48750227840245
H           -1.04585249809735       -1.49215728062568       -0.66707542704905
O           -4.90350939944712       -1.75918408866274        0.79230233135592
N           -4.55958208350925        0.45050956394961        0.06649547571377
H           -7.37578730476729        0.87988430270939       -2.17036525852915
C           -5.86654364769521        0.99958519283663       -0.19337276486103
H           -6.15252360367465        1.50662964581435        0.74109861558638
C           -5.66827844261700        2.07459278434851       -1.27522501066034
C           -6.99866064793165        0.02331568737251       -0.48405981922482
H           -4.70160070091201        2.53775475352327       -1.07226378868944
H           -5.57497097457792        1.59572716244083       -2.25573057001497
C           -6.75143660902607        3.16567474882361       -1.29527645583535
O           -7.68934003433081        0.13546656463482       -1.64249487541532
H           -7.73899901288502        2.71747639357656       -1.13135251477054
C           -6.51403795426711        4.18318766300242       -0.18132568168703
C           -6.75843449623074        3.87285926032330       -2.65056421654773
H           -5.56478405522757        4.69283576301222       -0.33099195385261
H           -7.30651004009488        4.92798053367370       -0.17361986501149
H           -6.49391599762932        3.70010656722535        0.79228545835383
H           -6.98859686190970        3.18131106142401       -3.45950158375900
H           -7.50319707357264        4.66499236294218       -2.66209275705923
H           -5.78485861204639        4.31638648664215       -2.84763155425605
N           -7.24621427216400       -0.87356209467525        0.35896057517993
H           -6.70490917462923       -1.88606315132978        1.82406605341119
C           -8.27750182884142       -1.86501992971807        0.18483865726410
H           -9.24118666852062       -1.41188222496123       -0.07826291589709
C           -7.90435020714581       -2.90308813464629       -0.88150469131845
C           -8.40637364436780       -2.60236256451764        1.52491952668702
H           -6.92619213166267       -3.32307356169403       -0.65564684515337
H           -8.64522458867758       -3.69784503864674       -0.88723652523164
H           -7.87139145395029       -2.43296186450878       -1.86095382843764
O           -7.33244008572957       -2.48603687883999        2.29396818859063
O           -9.37037962314079       -3.25072179764290        1.82886080237136
