42
 energy: -62.486133516315 gnorm: 0.000479253039 xtb: 6.7.1 (edcfbbe)
N           -2.20097803754202       -1.44398277215780        1.52361678251948
H           -1.68873559433171       -0.62458530051736        1.83340043951951
H           -1.55696885882871       -2.22559346274868        1.49689805840447
H           -4.00874596061681       -1.10461016501001        2.15102186966943
C           -2.79927208183959       -1.21611219953928        0.21035896599014
H           -2.14266797828504       -0.69341894101951       -0.49874734139979
C           -3.23481859541207       -2.55179259901332       -0.39552019990328
C           -4.04911691607169       -0.38135481274233        0.42368594110159
H           -3.89773182668559       -3.07377564816184        0.29176634224779
H           -3.75973794017860       -2.37342309380504       -1.32960858912087
H           -2.36869003822388       -3.18022081736268       -0.59192244215477
O           -4.61617667374973       -0.53661805574912        1.63099343372171
N           -4.44205134240468        0.37859577277860       -0.49673319111451
H           -7.37888413904735        0.88227262799552       -2.23471985553832
C           -5.70354465681466        1.09231069010045       -0.41643713922436
H           -5.81930687048320        1.52515248926347        0.58890711895786
C           -5.67644667519067        2.20612393710301       -1.46489055232024
C           -6.83693491117617        0.08923266581044       -0.57025685564058
H           -4.71373891140649        2.71044828996916       -1.36464740475485
H           -5.67748031188648        1.76188364810038       -2.46539684761191
C           -6.80385169692054        3.23965247213832       -1.31568265731269
O           -7.63176541491962        0.14952664098309       -1.65880798149983
H           -7.74503854796250        2.73044207155798       -1.07531748259653
C           -6.49865910989376        4.21498203616505       -0.18048133415424
C           -6.98776104140129        4.00784864174334       -2.62430246441051
H           -5.58734739514457        4.76967096476056       -0.39359540449375
H           -7.31318913946127        4.92587777461587       -0.06276221072759
H           -6.36914310360316        3.68983893690527        0.76239227603392
H           -7.26779272098663        3.34263279790810       -3.43935890330778
H           -7.76723984469189        4.75847570609495       -2.51797298425343
H           -6.06312284115279        4.51166054149434       -2.89738053645082
N           -6.96611615789996       -0.79400637376564        0.31462121765551
H           -6.41232836249283       -1.46390512837520        1.92806182816435
C           -7.95385881380458       -1.84193482471812        0.26014003679408
H           -8.96538655050916       -1.43387197259119        0.13592480300642
C           -7.68929866862473       -2.85070255131060       -0.86340483674034
C           -7.88690229108610       -2.58551222117067        1.60485885775001
H           -6.66831001839289       -3.22200832324352       -0.79493398948648
H           -8.37881348526241       -3.68405439874251       -0.76158527001268
H           -7.83056159828565       -2.37887677159936       -1.83207328080431
O           -6.88754152228913       -2.20324476352279        2.38512124318384
O           -8.66013460887804       -3.45504934102199        1.90370578711099
