42
 energy: -62.486133511638 gnorm: 0.000479998705 xtb: 6.7.1 (edcfbbe)
N           -1.71287621828802       -0.18736247479205        1.31491238929194
H           -0.79822311013087       -0.61307492916885        1.21973376436237
H           -2.06946693012270       -0.43974607582937        2.23347259135829
H           -2.62278748735391        1.51321941036755        0.99429247727254
C           -2.62528615104815       -0.68682540818018        0.28482801340788
H           -2.10835712215147       -0.58212979117027       -0.67916293384923
C           -3.06912225464552       -2.13604567156500        0.46345108145421
C           -3.81081031852062        0.26319552776848        0.24741658829928
H           -3.55615044243944       -2.26686475732771        1.42673259634221
H           -3.77986773734060       -2.39300805659343       -0.31373696520947
H           -2.21240118015553       -2.80443346848625        0.40536162771545
O           -3.53633067021623        1.52140895444213        0.64668873829555
N           -4.93345287508536       -0.15146548548684       -0.13182857100654
H           -8.35607109408350        1.25435056719558       -0.99053991921401
C           -6.06827797770429        0.73534127853601       -0.22669577970558
H           -6.10535676854117        1.40690861281990        0.64674969715279
C           -6.01238090173658        1.59197783227230       -1.51182677249754
C           -7.30212629973767       -0.14333599333246       -0.19155116907650
H           -4.96775362961705        1.67332457517682       -1.81659579008561
H           -6.53297288563073        1.06053225053781       -2.31351571707221
C           -6.58113830539109        3.01090873996365       -1.34610467016065
O           -8.47356671106168        0.36374875114397       -0.63659214353417
H           -7.46391740200645        2.98827963086746       -0.69246039148311
C           -5.54715404718125        3.92689238583579       -0.69495089684166
C           -7.00448508787301        3.57359639817753       -2.70240556802813
H           -4.70814005953310        4.08215286798305       -1.36942358900673
H           -5.98530740680645        4.89461535574142       -0.46212617807922
H           -5.16422648085297        3.48861772603240        0.22273656422544
H           -7.78057629162885        2.96230322210919       -3.15948251768262
H           -7.38880763520280        4.58460984251137       -2.59022844065826
H           -6.15293267598021        3.60482514864099       -3.37809129689808
N           -7.18851480992148       -1.29580115589835        0.29161803548104
H           -6.09275701737024       -2.48537109849980        0.99249413650569
C           -8.26131978899816       -2.24636010025492        0.42437902652706
H           -9.10979777190288       -1.82385299146818        0.97773753005932
C           -8.76369863175429       -2.77230154715160       -0.92411151631547
C           -7.68293840632060       -3.42573937064580        1.22939727352393
H           -7.92609431454596       -3.14479036233493       -1.51030209409573
H           -9.46675100273756       -3.58242891540031       -0.75170255623279
H           -9.25679926439540       -1.97551300216826       -1.47477389759214
O           -6.37283303895134       -3.34113516554148        1.41165015383756
O           -8.35436304129224       -4.33524874177199        1.63349158811377
