42
 energy: -62.486133509180 gnorm: 0.000480499064 xtb: 6.7.1 (edcfbbe)
N           -1.79931506385250       -1.75317062140328        1.14711119072209
H           -1.54345206366718       -1.14300262925265        1.91663545080245
H           -1.00300834666356       -2.34430610967254        0.94071957920537
H           -3.72035471468164       -1.89736059695780        1.43779179789476
C           -2.18495581350302       -0.97150243703629       -0.02550502555740
H           -1.54335709857344       -0.09860601234277       -0.21150759461483
C           -2.18270302090050       -1.86560068462011       -1.26700323798125
C           -3.60320772299897       -0.48299688776058        0.21200025446690
H           -2.85708704622258       -2.70767569952637       -1.12542586152586
H           -2.50314926189256       -1.29253804095455       -2.13209992206190
H           -1.18153893395411       -2.24814117035563       -1.45427978329677
O           -4.32166243007960       -1.21657722193875        1.07195563290882
N           -4.02288277437735        0.53055635394881       -0.40767819749754
H           -5.27578341571377       -0.51560845524647       -2.08850348333298
C           -5.39960107149363        0.96513215213165       -0.23576720749281
H           -5.56975371591116        1.26083386635378        0.80449713750403
C           -5.63967592380683        2.15423618780573       -1.17641902783416
C           -6.34643582063969       -0.16691706383915       -0.55403240837948
H           -4.91102977597671        2.92631993531746       -0.92509372290208
H           -5.43026382822655        1.83217670083590       -2.20015419200194
C           -7.05684864848964        2.73203725891153       -1.11041071771366
O           -6.07823368239185       -0.86576230741115       -1.67684714089506
H           -7.77428121046564        1.92483769277743       -1.29426739573908
C           -7.35705107973911        3.34140095351550        0.25636441177792
C           -7.22477322608651        3.78894962078547       -2.20120836996924
H           -6.63024831114921        4.11582748553260        0.49371249270718
H           -8.34792667146816        3.78902386918725        0.25602269504551
H           -7.33133193969430        2.58562675382145        1.03621196179432
H           -7.04566200442321        3.36311106195912       -3.18601505323245
H           -8.23292795666764        4.19535634570689       -2.18390726429985
H           -6.52275922711911        4.60587349630615       -2.04742583987438
N           -7.32512876776690       -0.40336459389062        0.19972869151026
H           -8.45241536477415        0.12541776814278        1.50822329187802
C           -8.25618835999929       -1.47467476446139       -0.07665236659996
H           -8.54206588953508       -1.50582903595825       -1.13594270556875
C           -7.67683251962263       -2.83683668456421        0.32004262559917
C           -9.51223344026724       -1.21346085883352        0.76737519269990
H           -7.32808860617172       -2.80245145467516        1.35003821475411
H           -8.44749623835092       -3.59671088176431        0.22568189978373
H           -6.84011375120032       -3.08459111865109       -0.32801803486933
O           -9.36196391726785       -0.23057332743324        1.64665344371065
O          -10.52240259678995       -1.85048464716063        0.65233370325636
