42
 energy: -62.486132202989 gnorm: 0.000641672433 xtb: 6.7.1 (edcfbbe)
N           -0.97159353244312       -0.85879756763699        0.71368403296333
H            0.00531645467182       -0.92562600288832        0.45609820839305
H           -1.24029531817020       -1.74638769075298        1.12943092875766
H           -2.16040766908577        0.35714338104334        1.62822486068635
C           -1.80783639862233       -0.58027524443548       -0.45210445762847
H           -1.32924386626388        0.23570541847490       -1.00938441813333
C           -2.01734643054908       -1.76937833886440       -1.38888854703512
C           -3.12777259521954       -0.03132758902308        0.07162335655514
H           -2.50708228529272       -2.58554835973620       -0.86060765948423
H           -2.63959141264837       -1.47064707072949       -2.22612368331794
H           -1.06044655208294       -2.12198905802916       -1.76863487628733
O           -3.06561655827291        0.51684724631602        1.29199922924262
N           -4.15731429493160       -0.08132069725357       -0.65213785252550
H           -5.03216683872629       -1.63061023190055       -1.17779813952652
C           -5.43394620098710        0.42754938262628       -0.18894971105083
H           -5.41549671053006        0.67526444372020        0.87903078877649
C           -5.72385486928040        1.69865429220112       -1.01036331744294
C           -6.45021398302725       -0.67651929569019       -0.41550915883707
H           -4.91958159740500        2.40455098972548       -0.78651965737156
H           -5.64486066655210        1.43187803281626       -2.06687840693718
C           -7.07013689175104        2.38147833551255       -0.76386428275997
O           -5.96969819158487       -1.80669330511232       -0.95608609907258
H           -7.86539496393721        1.69959798279610       -1.07318141261081
C           -7.26821208813448        2.73992001105029        0.70615760167252
C           -7.15684822105336        3.64007648731021       -1.62658527735860
H           -6.45736501078091        3.37704953421498        1.05427741437138
H           -8.20511404668657        3.27582867011292        0.83713317141109
H           -7.29728965577551        1.84610253462250        1.32302830186518
H           -7.02284245530158        3.39815510973239       -2.67832253432520
H           -8.12862528023003        4.11195363961031       -1.50592664717992
H           -6.38956950152871        4.35585276470916       -1.33795276317428
N           -7.66987772336443       -0.48621205146736       -0.15638817714017
H           -9.07943071030159        0.58071649507363        0.37076316499766
C           -8.65260774765675       -1.52056928620786       -0.39752151780548
H           -8.52576716938244       -1.97841656276010       -1.38677878762554
C           -8.59530455885181       -2.62429171646499        0.66569815693542
C          -10.03781184715282       -0.86518362436100       -0.32340470476041
H           -8.68122153344685       -2.18823741826995        1.65926806968535
H           -9.41714873703771       -3.31724389051866        0.50851903962873
H           -7.65193143732254       -3.15933600640380        0.59253215756796
O          -10.02245664773281        0.35405712923445        0.20215808416475
O          -11.04218551626070       -1.41579671197968       -0.68077944724487
