42
 energy: -62.486133505327 gnorm: 0.000481012520 xtb: 6.7.1 (edcfbbe)
N           -0.88203234622419       -0.41722868420344       -0.35683062685634
H           -0.09791879796699       -0.75196842613399       -0.90411494006403
H           -0.80648262465639       -0.83296180234755        0.56789275454443
H           -1.83505581720820        1.24318102465834        0.03856195016271
C           -2.15030896613473       -0.81238067038393       -0.97141267616284
H           -2.09432138119367       -0.53536992536946       -2.03244613427399
C           -2.49131542908483       -2.29535837937399       -0.85821814953592
C           -3.23819198673242        0.05614526968501       -0.36078965372517
H           -2.49051722459659       -2.60106023900112        0.18609928733172
H           -3.48531290100670       -2.45895543996533       -1.26002018412198
H           -1.76921507172148       -2.89780057909422       -1.40557733687938
O           -2.80957654044727        1.24665432207384        0.11147744654007
N           -4.42181475000706       -0.35850451210798       -0.33378075850383
H           -7.07050641798020        0.28831349126579        2.02652179058906
C           -5.49967452648761        0.45418290450180        0.17048007776698
H           -5.25200410845247        0.83926159631209        1.17292278676850
C           -5.77649470025956        1.63757370027445       -0.77930348087141
C           -6.73608633464757       -0.40985054488706        0.23296604779751
H           -4.86837962365547        2.23878863656076       -0.84517432855877
H           -5.97881782882906        1.20307868814870       -1.75959526277381
C           -6.94968700626124        2.53081052335621       -0.36334385069527
O           -7.49306169660230       -0.30233756421048        1.39151751461052
H           -7.82894079890252        1.90578319719096       -0.17147096292559
C           -6.62979394017720        3.34322397834926        0.89071115234805
C           -7.29366579318312        3.47542411738485       -1.51363807844021
H           -5.76075335500332        3.97408869514386        0.71630173068926
H           -7.47105987997867        3.98191335949469        1.15041695493095
H           -6.41709289672263        2.70634458224030        1.74688266457078
H           -7.57627385697083        2.91062016960840       -2.39830715813348
H           -8.12486055364919        4.12112155215002       -1.24032650642997
H           -6.43805753685420        4.10052289474910       -1.76042857595734
N           -7.03029742991601       -1.13718768259437       -0.73601777236514
H           -9.11280255241843       -0.34299929691505        0.57772388144460
C           -8.15670620131863       -2.02418496341237       -0.85760607345652
H           -7.97624951712514       -2.59777589710186       -1.77404578729555
C           -8.33214870415552       -2.99721667109074        0.31647662191173
C           -9.47332177910333       -1.26160014739100       -1.07090815786542
H           -8.57554701426523       -2.47324567327004        1.23818963453613
H           -9.12962877571263       -3.70023366098439        0.08867123462865
H           -7.40591935468160       -3.54725405467440        0.46590665175420
O           -9.78858938179394       -0.37519857355960       -0.12562837925212
O          -10.18770585591415       -1.45838497536835       -2.01180019471227
