42
 energy: -62.486132285396 gnorm: 0.000624167058 xtb: 6.7.1 (edcfbbe)
N           -1.66713828512571       -0.84493024393191       -2.05942731269519
H           -0.84897054269175       -1.40383814188747       -2.26852685818976
H           -1.39492399819856        0.13222755726158       -2.12515770687077
H           -3.53821151655073       -0.67831993715146       -2.53545565045844
C           -2.16902735013672       -1.13010642458903       -0.71706722711480
H           -2.22358452392583       -2.22283387459831       -0.61849774169023
C           -1.32056397904766       -0.56413144235363        0.41966699720066
C           -3.59925195675681       -0.61209452294142       -0.65734677407693
H           -1.21468667685885        0.51271092261803        0.30549712861209
H           -1.80881601947994       -0.75900031562217        1.36842837294750
H           -0.33234919442077       -1.01949588714237        0.42041435384265
O           -4.20028486456699       -0.46899134401901       -1.84585321413246
N           -4.13409923296714       -0.38398324621490        0.46254089767728
H           -5.21745361298552       -2.28761445167108        0.51811597151041
C           -5.51017155701916        0.08005861756649        0.53743056454707
H           -5.73256646988461        0.12357689462563        1.61342437807559
C           -5.70220667805075        1.47397129041692       -0.07574297837490
C           -6.44511055463773       -0.94917649758507       -0.06414918786260
H           -4.78701359027141        2.04568422024233        0.09579303720900
H           -5.83215916111657        1.35583782868781       -1.15164089888952
C           -6.89197772145253        2.24152856115382        0.51211243746057
O           -6.08315115824164       -2.24123837423236        0.08683047392913
H           -7.73020857573622        1.54769773362579        0.62065917775374
C           -6.55244739258176        2.82077043708498        1.88410304996942
C           -7.30379071047496        3.36594201458358       -0.43670915621254
H           -5.74544346676720        3.54613685720149        1.79990689190955
H           -7.41945365442433        3.32250440109424        2.30751178425567
H           -6.24054288969104        2.04283798691652        2.57664684481643
H           -7.60269924902176        2.97086995442045       -1.40439924416556
H           -8.14085336114505        3.92359006522692       -0.02362715313968
H           -6.47534793629312        4.05549001713858       -0.58699332532613
N           -7.52093071059730       -0.59240253091803       -0.60803664028090
H           -8.42773068102759        0.69722695635627       -1.49343027320811
C           -8.45374754308564       -1.54484569863748       -1.16401572703796
H           -7.94375179730265       -2.36962638080863       -1.67777172259933
C           -9.37054431406838       -2.12655634282671       -0.08259846113457
C           -9.31895900443102       -0.78764604329647       -2.18322326300566
H           -9.84965704963681       -1.32125922516902        0.47076151803359
H          -10.13454077477895       -2.73974411348198       -0.55208399775127
H           -8.79060772847695       -2.73496168470995        0.60702956474081
O           -9.13202511274063        0.52608035831510       -2.16359656321674
O          -10.09919067169244       -1.33397157648829       -2.91258716803771
