42
 energy: -62.486132285986 gnorm: 0.000624088794 xtb: 6.7.1 (edcfbbe)
N           -1.92574442912563       -1.43558408657051       -0.81847551217485
H           -1.73087085697617       -0.93439600962902       -1.67827380399678
H           -1.80384139699106       -2.42566111201099       -0.99649496142874
H           -1.42695673385884       -0.24670787825652        0.56566876266837
C           -3.27807963678263       -1.15369118922241       -0.33681180268431
H           -4.02006539936369       -1.14971819609691       -1.14412262791400
C           -3.67060047482166       -2.19952874345826        0.70943258057589
C           -3.23331376717032        0.19842914104361        0.39661737222049
H           -2.92424188277790       -2.22617558133717        1.50081092180066
H           -4.63206921579244       -1.94392515700913        1.14600694277214
H           -3.73852627980847       -3.18709336772468        0.25647357567351
O           -2.02078476634475        0.46174470579147        0.89561018640628
N           -4.16012258344411        0.98685478658678        0.70665091385033
H           -5.52912716248487        0.45040805234456       -2.11813341328865
C           -5.50180048411928        1.15369339647726        0.24112853170182
H           -6.06862471054507        1.38987908991230        1.15027072170536
C           -5.51787071804699        2.39374672057005       -0.67325347962685
C           -6.21897383014196       -0.02457773723453       -0.39062740684438
H           -5.06496793177976        3.20542462012274       -0.10257961684969
H           -4.86427295310872        2.22232476915518       -1.53692892067000
C           -6.91226826977411        2.82012553424642       -1.15014350284478
O           -6.03476786123052       -0.26627624720943       -1.71234569767406
H           -7.37591088046915        2.00231413206990       -1.71451648896034
C           -7.82732143750599        3.16470953664084        0.02240392960896
C           -6.77463815368843        4.02512840469207       -2.08047421290712
H           -7.35320686671018        3.89699847931820        0.67162245619435
H           -8.76041182214830        3.58481589241956       -0.34545561286466
H           -8.06580070393313        2.28039766545417        0.60737142192053
H           -6.13581284974525        3.79385704679280       -2.93069852887376
H           -7.74838892020300        4.32556757554168       -2.45904066579337
H           -6.34030878187595        4.86598394798712       -1.54474866269970
N           -7.00495080994266       -0.70945388478565        0.31599246107617
H           -8.02121785196964       -0.87751942306409        1.83866165126643
C           -7.79779109626165       -1.78100864595190       -0.24467142820592
H           -8.19961221327402       -1.50697076951949       -1.22900355338710
C           -7.01383096486541       -3.08953349560006       -0.38730913163019
C           -8.97112372748799       -2.03091001907255        0.71532222732090
H           -6.59438463577391       -3.38241417058063        0.57269718425365
H           -7.68824403457880       -3.86890293480135       -0.73073978568427
H           -6.21008651756019       -2.96551332110141       -1.10854192195406
O           -8.84845912283279       -1.40821934242669        1.88121942958869
O           -9.89679712639176       -2.74061049556011        0.43840152310030
