42
 energy: -62.486133510903 gnorm: 0.000479872602 xtb: 6.7.1 (edcfbbe)
N           -2.36548330990225       -1.60858217318983        2.07874444670144
H           -2.07709280791255       -0.92474876498946        2.77019210228301
H           -1.61234303462222       -2.27545101188612        1.96064682260372
H           -4.28359275761315       -1.70838403865796        2.26581161563062
C           -2.69438464560039       -0.96282354921090        0.81038001935646
H           -2.01468856865771       -0.14580368672452        0.53282977573862
C           -2.71228015928595       -2.00702968068479       -0.30765011943151
C           -4.10154667156067       -0.39863365120976        0.93791122074093
H           -3.36293269815317       -2.83598131490937       -0.03777493606336
H           -3.07647868663677       -1.55274391212555       -1.22398152182470
H           -1.70915012547562       -2.39155183248181       -0.48047047278747
O           -4.86711885194366       -1.04987671020197        1.83027340423876
N           -4.40205829669946        0.61180977720748        0.25791865527216
H           -8.03513914416742        1.80095668899433        0.38784225883904
C           -5.70949881557861        1.19541559855885        0.10126572539267
H           -5.84563130306862        1.93583322390606        0.90475534140649
C           -5.63705404236238        1.91929284504734       -1.26547361958874
C           -6.89798193580639        0.26088691863279        0.13217818846385
H           -4.67891154450234        2.44114536281174       -1.27605029983127
H           -5.59273572776282        1.14333411449511       -2.03223153043196
C           -6.74958394081844        2.91188581638337       -1.61760087998880
O           -8.11428215630007        0.84720844380723        0.26746407314297
H           -7.71740070779020        2.39851191354790       -1.62533739625152
C           -6.80314023179340        4.08839550808716       -0.64285337827206
C           -6.50562289828999        3.43887662694838       -3.03240089033564
H           -5.85140930137321        4.61533314674690       -0.64398017324596
H           -7.58091926556602        4.78846484453649       -0.94052784845894
H           -7.01041880951539        3.77586130582493        0.37939911758045
H           -6.49006293359544        2.62160510535240       -3.74924437530735
H           -7.29153948823280        4.13280600488471       -3.32146166705505
H           -5.55175966379557        3.95892884511564       -3.08423614869049
N           -6.76221144874625       -0.98695966682125        0.08025306962561
H           -5.72254330728494       -2.41067427058088        0.43631275131951
C           -7.89296278757142       -1.88523400719456        0.09465416528557
H           -8.59377555317617       -1.63413970556331        0.90225903419672
C           -8.65235273179486       -1.87826779896870       -1.23560458411012
C           -7.35121316159969       -3.30033922167750        0.35014324591814
H           -7.95924265399340       -2.04801046157309       -2.05723885078473
H           -9.39266858329185       -2.67326096253332       -1.22518053270362
H           -9.14837147616609       -0.92197335932673       -1.37941166144867
O           -6.03260282261404       -3.34795378221533        0.48853403780119
O           -8.05600416886985       -4.27015421494334        0.40787657827543
