42
 energy: -62.486133506999 gnorm: 0.000480684159 xtb: 6.7.1 (edcfbbe)
N           -1.39584497451809       -0.96659273806252       -0.64037574121482
H           -0.76865057163949       -1.75912832462755       -0.70350757541545
H           -0.94541337855794       -0.26642145990066       -0.05714045582063
H           -2.45236123766135        0.12351985254544       -1.77721039154978
C           -2.67452421080226       -1.35673092718774       -0.04538229780825
H           -2.98967729589703       -2.28957639554433       -0.53006963214018
C           -2.63904063605663       -1.56233133377594        1.46601763268107
C           -3.70015350494040       -0.29797742411543       -0.44159608215862
H           -2.29361948710816       -0.65566794173157        1.95890064481778
H           -3.63995304707752       -1.78325846686425        1.81997954821815
H           -1.97208717132975       -2.38255219339297        1.72394443582926
O           -3.36009703370159        0.40803101091341       -1.54069104172210
N           -4.75407495319579       -0.20688524430610        0.23065300458967
H           -6.58487389152542        0.54621217018761       -2.34924648679762
C           -5.85009867902946        0.70811084621723       -0.00230926446168
H           -6.18878694941070        0.96832539008130        1.00830166352319
C           -5.56169769200272        1.99554610329045       -0.78100566905190
C           -6.94255832404546       -0.16066810898200       -0.60243955883384
H           -4.72504380072290        2.49768602603412       -0.28999093087283
H           -5.22623245184556        1.76800467456616       -1.79686001294677
C           -6.76394611519476        2.95022778231627       -0.83085390866554
O           -7.15266120074075       -0.11549150319899       -1.93228676085908
H           -7.66235929038186        2.38812877961816       -1.11232346337133
C           -7.01905431555460        3.60308457481186        0.52579961718396
C           -6.51794087365626        4.02860376555932       -1.88605465284795
H           -6.14100704694493        4.15739607296228        0.85089982085310
H           -7.85436563837623        4.29604524240822        0.45645003938762
H           -7.26031529366914        2.86116570243155        1.28233771902245
H           -6.38642005734831        3.59064478413877       -2.87368810775160
H           -7.35860726418816        4.71678416472057       -1.92971180960955
H           -5.62279260289369        4.59681274366404       -1.64206961909458
N           -7.54138286697273       -0.96588455941358        0.15690260583367
H           -7.95161500370572       -1.53442983346363        1.82341895354975
C           -8.52098902262792       -1.90677204904212       -0.33525309041729
H           -9.23657612095278       -1.43310923838845       -1.01918054081161
C           -7.86227629403540       -3.09149856191408       -1.05139399622545
C           -9.28100209114239       -2.44461339623804        0.88698398214097
H           -7.10839822813075       -3.53869077172192       -0.40655829280281
H           -8.61955190317941       -3.83419048015795       -1.28639723563580
H           -7.38836388411400       -2.75383932939486       -1.96945602222708
O           -8.72499474360621       -2.10709318756170        2.04317527699355
O          -10.26678210336032       -3.12295202918305        0.79822291167515
