42
 energy: -62.486133510184 gnorm: 0.000480118552 xtb: 6.7.1 (edcfbbe)
N           -1.19830681351189       -0.88723373357736        0.90310465804627
H           -0.23726101331782       -1.09860126251109        0.66438550772663
H           -1.53611072859395       -1.63486633409112        1.50318503154492
H           -2.29525612313588        0.54452330994074        1.56861188105905
C           -2.03056133977306       -0.80034911883575       -0.29538863309539
H           -1.49170361758175       -0.18005180760000       -1.02334793643131
C           -2.36859154328948       -2.14744005869330       -0.93194453859666
C           -3.28923872639959       -0.03510738569753        0.08968156251274
H           -2.91203872599365       -2.76968970740990       -0.22387976979457
H           -2.99639996881963       -1.99391240783219       -1.80279215585115
H           -1.45906695179573       -2.66364525438277       -1.23295860318602
O           -3.18293580344961        0.71676389212288        1.19405442249535
N           -4.31893844619969       -0.12893175967850       -0.62759621083880
H           -5.68033574547604       -0.64291054162193       -2.24948188923566
C           -5.52985638689846        0.59415423276739       -0.28947039343007
H           -5.59023239084725        0.81365223774590        0.78147401927196
C           -5.59677638814764        1.90048097855722       -1.09761038287086
C           -6.65540194627999       -0.33440448270255       -0.67560534593070
H           -4.79992906861679        2.55635098840454       -0.74061457322861
H           -5.39037834853730        1.67059362052905       -2.14716826978849
C           -6.94473559806898        2.62192760166551       -0.99749723236681
O           -6.55956396739929       -0.86490377446224       -1.90568811720374
H           -7.73378652383715        1.93558911538083       -1.32454703453023
C           -7.24755718028882        3.05919647534513        0.43283570868378
C           -6.93945059098907        3.83337744699862       -1.92868849175201
H           -6.44599451745098        3.68802114199743        0.81488679582254
H           -8.17379647692832        3.62790004407181        0.46119562622614
H           -7.36040069486203        2.19914492812056        1.08649760270639
H           -6.75121767968211        3.53243683394199       -2.95702725358448
H           -7.89900554181524        4.34302379955906       -1.89280187238042
H           -6.16585774040474        4.53750328462603       -1.62914030646282
N           -7.55672756226051       -0.62126937389556        0.15599690530898
H           -8.50713940608165       -0.19334190423823        1.63747161761638
C           -8.62667157284215       -1.53765135465354       -0.17821444737872
H           -9.00384947761025       -1.37418952585457       -1.19541509071035
C           -8.17450656305433       -2.99617006521559       -0.04747360585267
C           -9.76888502569929       -1.29035152616008        0.81766161336360
H           -7.75297993463502       -3.16585337093607        0.94133532773098
H           -9.02984163182073       -3.65096093453130       -0.18801636628932
H           -7.41992370154805       -3.21796529224620       -0.79795458512207
O           -9.43476702440804       -0.47780428839990        1.81322819136018
O          -10.85021276998190       -1.79906049474180        0.71365163689479
