42
 energy: -62.486133515672 gnorm: 0.000479836346 xtb: 6.7.1 (edcfbbe)
N           -0.81402404358960       -0.08048717320336       -0.84091482116123
H           -0.09136871498774       -0.41571567488448       -1.46601247036202
H           -0.49943896157719       -0.25075573265989        0.11042991553776
H           -1.92312313157721        1.46793427698127       -0.60589613920456
C           -2.07808835109983       -0.77545435553950       -1.07910471948343
H           -2.24603061939183       -0.78332304726624       -2.16380259693140
C           -2.13027164228863       -2.20858227493898       -0.55530801112415
C           -3.18616402981725        0.08702887960527       -0.48472421080395
H           -1.94425339903918       -2.22388345698046        0.51706482065686
H           -3.11455910928971       -2.62406225974647       -0.74218058890001
H           -1.38135612460588       -2.82192763472195       -1.05214713169291
O           -2.86416277177098        1.38360365869573       -0.34718760023206
N           -4.27847309906405       -0.45399402678586       -0.18394586211245
H           -5.44321461635424       -1.87270764558715        1.39555244126367
C           -5.44240717190828        0.24521287710124        0.32976667480857
H           -5.26832381727802        0.49291037312019        1.38742344502980
C           -5.81637321093767        1.51556591669604       -0.44194298142191
C           -6.52747640837610       -0.81064216085762        0.25045466502579
H           -4.95253121595220        2.17967212309236       -0.45726580241273
H           -6.03752601157635        1.21978771944686       -1.46862949638445
C           -7.01250701695657        2.27032208118561        0.14899479865775
O           -6.34082439161391       -1.89029011242564        1.03865082660878
H           -7.80819700442752        1.55306002896222        0.36953474449728
C           -6.63192391952358        2.99464540141385        1.43887650834646
C           -7.53600518661216        3.27579837690210       -0.87517399844893
H           -5.82171950427958        3.69705510534965        1.25403088833520
H           -7.48388196318800        3.54897123822366        1.82583750229504
H           -6.31151959850988        2.29550192532346        2.20746587192081
H           -7.86533482278097        2.77094289119481       -1.78005312012786
H           -8.37849012084670        3.83017031263234       -0.46839151971462
H           -6.75551317887555        3.98576063471506       -1.14091682696889
N           -7.46284235829249       -0.71706195410105       -0.58371442841251
H           -8.22760243014529        0.14075581045667       -1.96639681303408
C           -8.46057698011891       -1.74740413758911       -0.74952741762360
H           -8.00836957065216       -2.74501933743794       -0.81526486507867
C           -9.48303094662094       -1.74326078505236        0.39244383544804
C           -9.20026918217535       -1.44329204701754       -2.06181817775568
H           -9.91483356302649       -0.75014121045573        0.50174872249859
H          -10.27515974752393       -2.45172153107444        0.16733568636090
H           -8.99835631955838       -2.02489694500256        1.32378735581795
O           -8.91182520925197       -0.24843721218177       -2.56279724719805
O           -9.97824179585450       -2.20366476259333       -2.56734678304631
