42
 energy: -62.486133502346 gnorm: 0.000481342983 xtb: 6.7.1 (edcfbbe)
N           -1.40678364372466       -0.38525757112076       -0.02402025405536
H           -0.66766540935401       -1.03037548514654        0.23444527733950
H           -1.90485769706371       -0.10839162035273        0.81536824832862
H           -3.78940927551827       -0.51825586456121       -2.81671323434540
C           -2.34385928587787       -1.02385943283002       -0.92712773596377
H           -1.90736215896736       -0.98419170686187       -1.93764807068442
C           -2.65341160581232       -2.49223460795406       -0.57911565074523
C           -3.65952432823941       -0.26951217723856       -0.91409622653682
H           -3.05907267849076       -2.54576924287839        0.42864731026568
H           -3.38443738352878       -2.90779762521948       -1.26927611001369
H           -1.74496380399432       -3.08951867302024       -0.63085997721581
O           -4.28565293076740       -0.11440128772770       -2.09342013492975
N           -4.08216573992116        0.12725941433556        0.20197520872500
H           -6.85068366991217        0.05877765464759        2.21357095616810
C           -5.35461456905082        0.77123429856695        0.42641344245484
H           -5.29665582539792        1.13455723291015        1.46301273392038
C           -5.64819827717371        1.95137798726749       -0.51413540601969
C           -6.47282963828385       -0.24254931708451        0.32209468158778
H           -4.77894174969012        2.61229151286072       -0.51389441020878
H           -5.77286453638825        1.54106290427789       -1.51533632382478
C           -6.90381876928823        2.74267918933793       -0.13190670471726
O           -7.21141366318836       -0.44786257247919        1.47571083261255
H           -7.72667198948080        2.03974361916233        0.04345284159376
C           -6.69255668585785        3.58329145759761        1.12634530432343
C           -7.30168657768134        3.64843871097243       -1.29571886087913
H           -5.88843680194650        4.29890073223746        0.96841157698321
H           -7.59878752249845        4.13475460651715        1.36660367601053
H           -6.43626005360058        2.96974373802361        1.98725414559989
H           -7.51343587152732        3.05680060557528       -2.18265474346166
H           -8.19112082570892        4.22232470845018       -1.04646204052793
H           -6.49674674608185        4.34287626915560       -1.52689651274276
N           -6.68320134562900       -0.82990406470998       -0.75876640876060
H           -8.82931641680449       -0.54279720050982        0.65463608739313
C           -7.68304959366703       -1.82524154929761       -1.03856582125863
H           -7.44481238841898       -2.20095945554582       -2.04061342836976
C           -7.71072908300103       -3.00162482209989       -0.05312884145739
C           -9.09353779916826       -1.22050221497722       -1.12532783230712
H           -8.00468391234790       -2.68132377837880        0.94400674976106
H           -8.41515872208432       -3.75112915627770       -0.40536290035954
H           -6.71980882913059       -3.44689842911126        0.00564569142366
O           -9.50519365834952       -0.55102501597043       -0.04905191021451
O           -9.79180979852050       -1.35675721970194       -2.08855973865049
