42
 energy: -62.486133520013 gnorm: 0.000479096368 xtb: 6.7.1 (edcfbbe)
N           -1.48465866424718       -0.90777311841163       -0.03152009832918
H           -0.84585605682784       -1.69377276321047       -0.04685350007428
H           -1.22685419840738       -0.32113585744274        0.75759169587828
H           -2.26424550236594        0.35179946523334       -1.25622444155073
C           -2.86630965918858       -1.36403240402369        0.12596401797411
H           -3.02792871782438       -2.15916555016943       -0.61364471021347
C           -3.21234152164784       -1.89327334018052        1.51393878214512
C           -3.77105057322304       -0.20577704830285       -0.28632231610076
H           -3.07033972462289       -1.11355200020048        2.25866920989454
H           -4.25156796583884       -2.20126426945424        1.53652931445198
H           -2.57941312741734       -2.74292720703087        1.76284638837994
O           -3.19585749913367        0.63988780506719       -1.16876018025493
N           -4.92761251987749       -0.15938658719041        0.18781967005634
H           -7.63112333577935        1.14203264047810       -1.92746427030189
C           -5.98059461890644        0.78430244350296       -0.08649813563010
H           -6.24992841494690        1.18355771136194        0.90294708182467
C           -5.68956500348031        1.96404091866273       -1.02590605918296
C           -7.16225479828488       -0.07989230802532       -0.51859952668285
H           -4.68049615611008        2.31927434559309       -0.81873785980687
H           -5.68275869851546        1.61901600482926       -2.06489473641008
C           -6.66215073786329        3.14239338393163       -0.83605924042028
O           -7.93850918408520        0.30818539111435       -1.54900972086951
H           -7.67388486378892        2.77004282029258       -0.63104419738151
C           -6.23835840292727        3.99774721632313        0.35696610502129
C           -6.70682427346301        4.00109839414749       -2.09976268591456
H           -5.26584245427382        4.44871400813661        0.17154657296902
H           -6.95864600964770        4.79432522556019        0.52853420510554
H           -6.17193757109551        3.39980205190685        1.26282230370989
H           -7.06590505258387        3.43275647556295       -2.95641326356290
H           -7.36890442566273        4.85211689284899       -1.95787419947078
H           -5.71292544535103        4.37643454934965       -2.33326648171580
N           -7.34828382373888       -1.14873859003221        0.11469763003506
H           -6.81935591924003       -2.17701562606880        1.44142274959108
C           -8.39129548573226       -2.10054123624952       -0.16892888022400
H           -9.38257861709012       -1.62950480749570       -0.16092743374691
C           -8.19544760065779       -2.81833036143210       -1.50851345555386
C           -8.33158775585205       -3.14701369691392        0.96022162272856
H           -7.19111796667135       -3.23418783752798       -1.55940607293173
H           -8.91949432177840       -3.62411803071705       -1.59009153575344
H           -8.33368943533125       -2.12162426037808       -2.33094259385564
O           -7.28920756588430       -2.99004944516248        1.76330703399133
O           -9.13948762421561       -4.02647729208427        1.08077655687819
