42
 energy: -62.486133516481 gnorm: 0.000479566501 xtb: 6.7.1 (edcfbbe)
N           -1.88004964404009       -1.82617435405359       -1.54529826631649
H           -0.98411311575613       -2.29665874549643       -1.51460715429587
H           -1.86751427110347       -1.19453723029739       -2.34172762085330
H           -3.77353724084542       -2.17932054201708       -1.50785776627390
C           -2.11876568684091       -1.07158047767885       -0.31699663723868
H           -1.87812588435897       -1.73484258572979        0.52438869489745
C           -1.30830467283602        0.21691602005533       -0.19004180868678
C           -3.61475038400889       -0.79077224412803       -0.24641907835877
H           -1.50130529843451        0.86309067993521       -1.04394939933320
H           -1.60653098370379        0.74321546353025        0.71021857163672
H           -0.24381955309271       -0.00450575782202       -0.14588631386805
O           -4.37694522516739       -1.59522206432935       -1.00484307459437
N           -4.03245095096545        0.12776933914816        0.50514215352140
H           -5.31689190988946       -1.61767330559344        1.78167009173661
C           -5.43727691718131        0.47339762799496        0.61753076300317
H           -5.55873314684163        0.84464730304419        1.64559679824014
C           -5.74469400130555        1.60622579028020       -0.37029620813473
C           -6.35534431003842       -0.71635825115458        0.44591739518737
H           -4.90119782225942        2.29953988956776       -0.34845693732705
H           -5.79797298164508        1.16716070927474       -1.36743178790791
C           -7.03905130677488        2.36903642751040       -0.06592122617836
O           -6.12394112486074       -1.76296966957417        1.27172821494860
H           -7.81839626730655        1.64338385354059        0.18228238115386
C           -6.85797128701717        3.32174849291761        1.11396169325771
C           -7.47684323781180        3.15260668192116       -1.30209265686076
H           -6.09641522952307        4.06530576354576        0.88744434337129
H           -7.78978241718533        3.84085595535951        1.32620945961241
H           -6.55835226826533        2.78820933341709        2.01248323614321
H           -7.67301660972706        2.48482869539582       -2.13733900304498
H           -8.38516791241915        3.71311427102751       -1.09428956952344
H           -6.70141765156565        3.85657836024277       -1.59766410243608
N           -7.30004715889102       -0.68859424816506       -0.38233250295976
H           -7.98245346267043        0.02196099810970       -1.88007739772698
C           -8.19213591840631       -1.80676991637936       -0.57580187948798
H           -7.65866018716228       -2.76510024506844       -0.55024094772416
C           -9.30601069834319       -1.82867576754832        0.47635661125421
C           -8.83354487706276       -1.63018495946933       -1.96087128755253
H           -9.81819933739543       -0.86853151770975        0.49602412224114
H          -10.02068705110243       -2.60750788057495        0.22576922128509
H           -8.88425208353565       -2.02630713026864        1.45873539288879
O           -8.57947704034915       -0.44917758765175       -2.51109307067468
O           -9.51203071670292       -2.47136351100185       -2.48196431158000
