42
 energy: -62.486133487431 gnorm: 0.000484232154 xtb: 6.7.1 (edcfbbe)
N           -2.34718629870703       -0.71748133442034       -2.02413883846094
H           -2.47778303861747        0.14773859505973       -2.53859653508050
H           -2.36999938772664       -1.48057168729667       -2.69130390807217
H           -1.31357473618550       -0.22403234109712       -0.47740386173410
C           -3.39876808704829       -0.88506371490019       -1.01768692986271
H           -4.40160835144948       -0.67389090161792       -1.41104084792611
C           -3.33436468783296       -2.32063865317950       -0.49250859290516
C           -3.05585069299905        0.10395552390604        0.10721747321559
H           -2.34143011770103       -2.52731190985575       -0.09769107485650
H           -4.06497559672825       -2.48512429634554        0.29305342419931
H           -3.54120745252616       -3.01934835484031       -1.30117974219928
O           -1.73672411374267        0.22917897150238        0.28231982828063
N           -3.79253471329506        0.82997465599714        0.82564915068874
H           -5.12848664444985       -1.11053132975245        2.21922304902240
C           -5.22840144871634        0.88321683302050        0.91613717929636
H           -5.43325316028616        1.13494953762445        1.96735569432737
C           -5.72876901589275        2.03273137756665        0.02610658678905
C           -5.92309976263697       -0.42300980424261        0.61193421100884
H           -5.07706791572971        2.88940049114176        0.20530838049742
H           -5.60422559893427        1.72745789365463       -1.01409284921489
C           -7.18669910957785        2.43461477709923        0.27311334022245
O           -5.72386946779675       -1.41020476402682        1.51921931979642
H           -7.79805582684277        1.52756418625658        0.30357138803392
C           -7.34606817196660        3.18155784963589        1.59537900019374
C           -7.67582388303851        3.31144864184233       -0.87868201434760
H           -6.72847147811164        4.07694898381579        1.60070592166899
H           -8.38241131096339        3.47966621106952        1.73606354539931
H           -7.05841746377757        2.56162710836566        2.44050708467954
H           -7.61957819955972        2.77852632465330       -1.82500196851234
H           -8.70866879784032        3.61032716690657       -0.71668910735160
H           -7.06761585957364        4.21019171795445       -0.95342963623324
N           -6.61807193002862       -0.57268392537031       -0.42518157237791
H           -7.10957648215079        0.00035977799626       -2.10764327166678
C           -7.23160237382523       -1.83025599721438       -0.78049455533607
H           -6.64708227422529       -2.69672714883132       -0.44886019037782
C           -8.64866937841001       -1.92999051277477       -0.20502659242873
C           -7.33748666549397       -1.84255710042382       -2.31191393175573
H           -9.23896215272718       -1.06838151174574       -0.51119349855229
H           -9.12405448785407       -2.83601068023617       -0.57016768901481
H           -8.60297121700325       -1.96000469778798        0.88103731113235
O           -7.27786700440145       -0.62662077127015       -2.84774925519733
O           -7.47484890284194       -2.84286734632021       -2.95713751040745
