42
 energy: -62.486133499317 gnorm: 0.000481823048 xtb: 6.7.1 (edcfbbe)
N           -2.30917170784673       -1.28417570464361        1.73464411047885
H           -1.79818922076690       -0.45090103123033        2.00564673552164
H           -1.67120881755284       -2.07019556574690        1.76875964838489
H           -4.13716073185097       -0.96417867365405        2.29635792051939
C           -2.88100214556882       -1.13394416576258        0.39839712968516
H           -2.21725983170742       -0.63697361142500       -0.32206601047020
C           -3.28419607703385       -2.50590140720315       -0.14567479728235
C           -4.14953018942479       -0.31468604043861        0.54036839766463
H           -3.93888949102541       -3.01058217944227        0.56148592392678
H           -3.80889879331998       -2.38207294683675       -1.08809791039015
H           -2.40278835392960       -3.12219088120505       -0.31041430288460
O           -4.75198989445440       -0.44243524278949        1.73708166150135
N           -4.52985646217119        0.40930965677127       -0.41319626484238
H           -7.84494744360140        1.19420192048920       -1.79789159842901
C           -5.81222992547009        1.07848465959767       -0.39050718394867
H           -5.97782881893051        1.53923801759239        0.59793065790231
C           -5.79655535618431        2.16538876617957       -1.47291053936452
C           -6.92480061211581        0.05227295229095       -0.55212099015906
H           -4.77159726865761        2.53507768934604       -1.53034080238414
H           -6.01012970630142        1.71380500566024       -2.44624631631186
C           -6.73877078361422        3.34825046236212       -1.19398193261407
O           -7.95637274647938        0.33319729354325       -1.37553244979678
H           -7.68296857866542        2.98403152953396       -0.76837704613540
C           -6.11423457392058        4.30447021158896       -0.17947251885652
C           -7.04824920668784        4.09494438870087       -2.49111345677423
H           -5.20408474105333        4.74134644071078       -0.58444724024469
H           -6.80496549511960        5.10969074171104        0.06011936874136
H           -5.86358483838533        3.78581135996793        0.74262981470482
H           -7.54887710488262        3.45006947694435       -3.21144538003874
H           -7.69374441933678        4.94769709508334       -2.29440956177263
H           -6.12828016070201        4.45970310153150       -2.94238616569259
N           -6.85565439448802       -1.01984256092748        0.10004191544808
H           -6.19377730424301       -1.83991854072417        1.59917371784211
C           -7.84913073777466       -2.06048441160742        0.01436332651626
H           -8.86811903587724       -1.65855035640429        0.09685655382478
C           -7.73871588664869       -2.85548667214445       -1.29066931590094
C           -7.60624008015365       -3.01395067390216        1.19541072047385
H           -6.71693819135118       -3.20535668791404       -1.42423484233289
H           -8.40528775348323       -3.71191235731340       -1.24241858981460
H           -8.01257011455269       -2.22818889442285       -2.13491129269836
O           -6.56847710371069       -2.68672941888185        1.95175848213001
O           -8.28891711336561       -3.98035893874883        1.40077590025455
