42
 energy: -62.486133512190 gnorm: 0.000480110402 xtb: 6.7.1 (edcfbbe)
N           -2.35429758750276       -0.94007963311960       -0.15017912001746
H           -2.16600516509314       -0.07079525070975       -0.63910088771401
H           -2.00585019757081       -1.70263908093373       -0.72083962409541
H           -2.48408155124619       -0.54137726607877        1.87139885370384
C           -3.78826958429704       -1.10004758278479        0.10472608081700
H           -4.40680364054016       -0.97007652472339       -0.79540802947185
C           -4.01423783312234       -2.48979166352800        0.69845351064450
C           -4.13318465010035       -0.02731230515186        1.14170517132007
H           -3.43544035417437       -2.60799990864933        1.61197597089053
H           -5.06294324709187       -2.63512291965693        0.92992810657158
H           -3.69644355855227       -3.25451292889955       -0.00870935891504
O           -3.24267382040594        0.00811576958027        2.14160931176815
N           -5.02631480997665        0.85709113865984        1.15899029248438
H           -7.28399517162194        1.08663721658897       -1.90986697426058
C           -6.09542732373572        1.11827429440558        0.24520577835377
H           -6.87837534601323        1.57387833722503        0.87369919256388
C           -5.61183464418512        2.19034065843085       -0.76349630261306
C           -6.78563814145148       -0.05200678594441       -0.43513303248091
H           -4.71444032946312        2.64417194279394       -0.33875569067159
H           -5.30860693945238        1.70777973057917       -1.69869469254109
C           -6.63190514790429        3.30963191066398       -1.03308610866585
O           -7.38731073038410        0.17017423724477       -1.62364724092218
H           -7.64427612100608        2.88942898602260       -1.10557232031554
C           -6.62848387724226        4.31490099287984        0.11646811036295
C           -6.30846715901492        4.01505819832315       -2.34969633809012
H           -5.67241475465460        4.83113563721716        0.16030732025023
H           -7.41336625374002        5.05478308444012       -0.02156255617633
H           -6.78765597032963        3.81639689711101        1.06900256215295
H           -6.36220802750423        3.32862125737734       -3.19336874707898
H           -7.01137067313084        4.82528564897008       -2.52726292272307
H           -5.30592422473429        4.43523907136940       -2.31429452289348
N           -6.86003445110177       -1.16694122157109        0.14780144991270
H           -7.05343218737960       -1.97170206293951        1.79366656238379
C           -7.63259569274036       -2.25530254797253       -0.41300697099712
H           -8.60966061845960       -1.89307488228466       -0.76471818589108
C           -6.94031201381436       -2.95964809857527       -1.58203277190054
C           -7.89930036991979       -3.25918565804028        0.71891474446456
H           -5.94391297047240       -3.28270551178395       -1.29231914617389
H           -7.52589295885183       -3.83164986483960       -1.85891697822550
H           -6.86703557230185       -2.28820651721281       -2.43378813037485
O           -7.47879486867976       -2.85132922699193        1.91224255218836
O           -8.44448294812573       -4.31202781945843        0.54067730786313
