42
 energy: -62.486133529634 gnorm: 0.000477243963 xtb: 6.7.1 (edcfbbe)
N           -1.42868912094821       -0.48402762800193        1.10762508252381
H           -0.56977561219055       -0.98313145591587        0.90866783524975
H           -1.67698140905100       -0.68181631200788        2.07332164448271
H           -2.22583451554646        1.27056925783275        0.84089375406351
C           -2.50600154866153       -0.93472734774343        0.22392682744712
H           -2.11172099876494       -0.90609418392195       -0.80097423715605
C           -3.03645879640360       -2.33410410843264        0.52004930026750
C           -3.60335049718673        0.11401415339051        0.29591840784385
H           -3.47369502850367       -2.36947852257185        1.51458463710586
H           -3.80658463382602       -2.59255383555476       -0.19729209772238
H           -2.23074604198483       -3.06317917822385        0.45923300092773
O           -3.17136565210040        1.35510247984992        0.60620715364902
N           -4.79642562363707       -0.20565743379789        0.07311879947254
H           -8.09166455016673        1.68750973715725        0.49735815694509
C           -5.84845150051377        0.78295379811962        0.07828715564788
H           -5.76537056953844        1.44494081007161        0.95421651642685
C           -5.73119628348830        1.62274541704748       -1.21575546315658
C           -7.16079484699948        0.03752118059816        0.13639853282313
H           -4.71854796325876        2.03108918511480       -1.23189508772944
H           -5.82485808823041        0.92827149181775       -2.05388510275332
C           -6.71838621769594        2.77957449800557       -1.40463311811824
O           -8.28985253823809        0.75304274994593        0.36180443910947
H           -7.74230904178678        2.39136045610894       -1.43922945438728
C           -6.59919977276164        3.82435713678507       -0.29478390532637
C           -6.44164748986661        3.44311489723785       -2.75461339036679
H           -5.58357946867277        4.21275700974177       -0.25925924136070
H           -7.27652981754765        4.65432239460301       -0.48472580861973
H           -6.83443796428845        3.42044390972002        0.68873750341987
H           -6.53716222806643        2.72310356487304       -3.56376716132071
H           -7.14614675735949        4.25254546690776       -2.93163086462339
H           -5.43458189175258        3.85372378211025       -2.77684682022142
N           -7.15439092114018       -1.21346610797220        0.04909006093100
H           -6.15589479706620       -2.66038288577856        0.19957497485070
C           -8.32708787323626       -2.04082270214196        0.14416246117441
H           -8.99919722336417       -1.72012766141507        0.95119018972077
C           -9.11238458523542       -2.07120217641492       -1.17083509904119
C           -7.82022451612694       -3.46228224533736        0.45236907917048
H           -8.44809059837247       -2.33389916818078       -1.99148093439212
H           -9.90216255876914       -2.81376111868926       -1.09954501870090
H           -9.54909769886702       -1.09479411299560       -1.36579556200415
O           -6.50086617730023       -3.57053962669991        0.39841382769312
O           -8.55444781771648       -4.37904119743152        0.70073376384979
