42
 energy: -62.486133511806 gnorm: 0.000479810276 xtb: 6.7.1 (edcfbbe)
N           -1.47441746361012       -1.42901849414660        1.08943670327282
H           -0.48411387062104       -1.61802428847984        0.99221275319094
H           -1.94085146085188       -2.31619011187424        1.25945252540026
H           -2.67264189724887       -0.22673470575134        2.01715681555048
C           -2.01228428767730       -0.80697159953843       -0.11874760586439
H           -1.33146812097673        0.00928264245774       -0.39352290563437
C           -2.16898028061005       -1.75114617065439       -1.30926918867748
C           -3.33569135530025       -0.16001692920721        0.26550343884549
H           -2.87162509785881       -2.54693463429173       -1.06882609696807
H           -2.54806067817496       -1.20060781492753       -2.16421864130824
H           -1.20883885519479       -2.19300013995877       -1.56900504736975
O           -3.46572286769422        0.12834503230639        1.56765103250153
N           -4.18875993945259        0.08819806511651       -0.62594975579920
H           -5.41101605983546       -0.76204004574585       -2.09988972621103
C           -5.46424084031479        0.69576803540111       -0.29648409045867
H           -5.54513750445280        0.95274685958418        0.76392671065711
C           -5.65443957605267        1.94526766676766       -1.17058814461406
C           -6.50709841043395       -0.34347004362352       -0.63472419318772
H           -4.87378027690671        2.66230962484018       -0.90797470704784
H           -5.50072654584004        1.65888367320705       -2.21441370499401
C           -7.02971851536090        2.60426282029244       -1.02339918112176
O           -6.29071800853502       -1.01850585600973       -1.77568915760354
H           -7.80123505554087        1.85289511064370       -1.22239903217995
C           -7.24476237825341        3.15728311268895        0.38286921149352
C           -7.16714737330548        3.72477502752187       -2.05323163728435
H           -6.46481347268901        3.87424537947909        0.63147208465204
H           -8.20616017867585        3.66136244607250        0.44291684042796
H           -7.23584900746261        2.36137390278283        1.12176479223350
H           -7.05601639338143        3.33899310313935       -3.06427753005609
H           -8.14426692247877        4.19461775904088       -1.97314552884860
H           -6.40648842884952        4.48540005569411       -1.88962315559946
N           -7.47512215711731       -0.54497325609042        0.14460600279947
H           -8.57823898742427        0.09933399839698        1.42396716652217
C           -8.49524681294711       -1.52836631589753       -0.14891662508258
H           -8.77696768698229       -1.52180779998324       -1.20965724039468
C           -8.04141152979729       -2.94106232558254        0.23235005453480
C           -9.73081395494508       -1.16625032049429        0.68952092252722
H           -7.70302429711778       -2.95475499503230        1.26658072447800
H           -8.87602242731612       -3.62762294329553        0.12072980524418
H           -7.22488824560768       -3.25490936016195       -0.41347619182727
O           -9.51329175097156       -0.18554661268084        1.55672163968600
O          -10.78409228558625       -1.72941537175312        0.57752486893233
