42
 energy: -62.486132290404 gnorm: 0.000622535404 xtb: 6.7.1 (edcfbbe)
N           -0.90167492606272       -1.06178056471406        0.23841770199474
H           -0.48360133809009       -0.25232498779893        0.68451810768222
H           -0.16230205113462       -1.59069279828873       -0.20802842435652
H           -2.37798345709011       -1.46533827474375        1.34219522809369
C           -1.91146370693365       -0.65346995291015       -0.73790923637738
H           -1.65405252076049        0.26043668087479       -1.28879154377683
C           -2.16392509425909       -1.78281909082064       -1.73735892108839
C           -3.19995275329734       -0.40206419336615        0.02603611252246
H           -2.42272426736503       -2.69993354524818       -1.21216008463333
H           -2.98335511392825       -1.50781121987723       -2.39446858607212
H           -1.27500789256320       -1.96181851298057       -2.33844639665236
O           -3.26243177430769       -1.05505412276857        1.21928507866623
N           -4.06384200222146        0.35875993136365       -0.46103260366401
H           -5.01132971740348       -1.45973987177724        1.32634586937841
C           -5.36697083198433        0.64776076858734        0.10357620000230
H           -5.24436059962130        0.97729468554246        1.15007399887627
C           -5.96886457833385        1.77817752271591       -0.73453021457994
C           -6.25690763944674       -0.58084398890631        0.15208286372723
H           -5.18330659222963        2.51896895535272       -0.89145959579276
H           -6.22946477721108        1.36174494469588       -1.70696390305590
C           -7.19248019414723        2.45410909493969       -0.10732611760303
O           -5.89845348299189       -1.59787140006607        0.95157428082681
H           -7.86286491282713        1.67847609312666        0.27363855131793
C           -6.79227656452288        3.36877142783014        1.04904378043404
C           -7.93553529398543        3.26093094438458       -1.17065418290895
H           -6.12809388441539        4.15552722457165        0.69680980308250
H           -7.67315556509441        3.83509432848318        1.48433273087479
H           -6.28297766874712        2.81671822876768        1.83515253405995
H           -8.28542428530713        2.61668868109010       -1.97335169444730
H           -8.79706357582732        3.76194432734609       -0.73558695628048
H           -7.27960355675423        4.01703716603256       -1.59711097832732
N           -7.31395388980530       -0.59584255645423       -0.53430971470792
H           -8.31376578850217        0.10529001674613       -1.85499230025725
C           -8.22167279311785       -1.71830913671019       -0.53036544436853
H           -7.69261801899383       -2.67836846297795       -0.58117232572192
C           -9.11954169633762       -1.71355958225997        0.71245104619886
C           -9.11761534906579       -1.57084714448944       -1.76970599226979
H           -9.63125691645392       -0.75671860617473        0.79763955925637
H           -9.85841919679284       -2.50506221984391        0.62497006485481
H           -8.51847947443266       -1.87587597922963        1.60364863750615
O           -9.01106207644597       -0.38433212134379       -2.35500417033978
O           -9.85635544392354       -2.43527854771505       -2.15212765625810
