42
 energy: -62.486133515003 gnorm: 0.000479645158 xtb: 6.7.1 (edcfbbe)
N           -2.07260365610582       -2.36435026724589       -0.93291706927441
H           -1.12467223055488       -2.70868803109899       -0.84126580718284
H           -2.26241177433047       -2.24690769125622       -1.92458761259268
H           -3.84892770621340       -2.70529896743920       -0.35400236346823
C           -2.23441206499503       -1.08416780773353       -0.24598228349277
H           -1.79160797253400       -1.19133527584656        0.75227903617974
C           -1.58920148323423        0.10162184243278       -0.95933048284518
C           -3.73727271402694       -0.86278027693583       -0.04682951783898
H           -2.00001779578338        0.20073990488634       -1.96207423404051
H           -1.80544121335768        1.01098871231143       -0.40990904436363
H           -0.51142081157160       -0.03350583734492       -1.02849033233515
O           -4.46113461738376       -1.98714353598028       -0.08949595751616
N           -4.11615408563348        0.30402721474711        0.21399879392871
H           -6.96149841013926        0.87398868800749        2.24149766392561
C           -5.43805330713766        0.84718141565951        0.33498627173754
H           -5.36761529332297        1.55742885718611        1.17228902943056
C           -5.72033074415511        1.63277953341889       -0.96355349089225
C           -6.60116748520728       -0.08999737758794        0.57644928391014
H           -4.84792522950219        2.25124601332056       -1.17971803001583
H           -5.82492332423584        0.89105008388791       -1.75655114755241
C           -6.97933893619012        2.50414743524540       -0.91178612414246
O           -7.34678442611789        0.15762770228066        1.72310858989746
H           -7.81785530767550        1.89779119902474       -0.55114679434823
C           -6.80307189058462        3.70788072340396        0.01219118189645
C           -7.31967023248096        2.98266555163437       -2.32195602181898
H           -5.97535733663024        4.32571683518400       -0.32958009611930
H           -7.70562560076548        4.31470119891433        0.01450878525955
H           -6.60109854403549        3.40647509697255        1.03749047353908
H           -7.50641554695366        2.13564167599793       -2.97704422410218
H           -8.21031131547038        3.60628759130970       -2.30778331586815
H           -6.49776436831062        3.56477454499565       -2.73354051422233
N           -6.83475439922736       -1.01608852764022       -0.22498273782414
H           -8.95826694059254       -0.18997966158639        0.98175571658947
C           -7.86457162654153       -2.01541290119719       -0.14724692972232
H           -7.63771213764693       -2.72594300900225       -0.95035511288000
C           -7.91286206583185       -2.76866486855840        1.18875726804871
C           -9.25599090765327       -1.44006542796350       -0.44702938687768
H           -8.20436722587579       -2.11346324464643        2.00692144350584
H           -8.62528738381563       -3.58692914279271        1.11927287092093
H           -6.92514911624177       -3.17089459442274        1.40136172460187
O           -9.64099548206599       -0.42192331075868        0.32355351768336
O           -9.96614853402122       -1.88324767218048       -1.30432787713334
