42
 energy: -62.486133507766 gnorm: 0.000480698046 xtb: 6.7.1 (edcfbbe)
N           -2.10625469335505       -1.99865176072373        1.22395098198481
H           -1.94660425324971       -1.53323319231943        2.11128767256034
H           -1.29212243135566       -2.56471561280912        1.01692874869915
H           -4.02795979139025       -2.17200124675294        1.22885324440040
C           -2.34590087446972       -1.02319449090598        0.16299860041264
H           -1.70135305482844       -0.13511928759396        0.21946642469942
C           -2.16165553831150       -1.68647380284626       -1.20248801076118
C           -3.79428715346769       -0.57202513482976        0.28713239928278
H           -2.81395947132288       -2.55291308554273       -1.28919391767626
H           -2.40549449933131       -0.97657542562748       -1.98706101291794
H           -1.13086111281141       -2.01016486790094       -1.33066674607332
O           -4.59953052492633       -1.44208054882589        0.91001915885126
N           -4.12130548900404        0.53661455234150       -0.20658980456175
H           -5.81410946586576       -0.01988243405071       -2.32094857909330
C           -5.47749913216443        1.05194730225827       -0.18961792452924
H           -5.70199242247220        1.38773570089066        0.82948312420642
C           -5.53800018503164        2.24488391641402       -1.15360045401025
C           -6.49644191281252       -0.00882831569372       -0.53510965083254
H           -4.87458826430660        3.01700569202072       -0.76201646507149
H           -5.12918627052850        1.94365614112575       -2.12307880874307
C           -6.94584466468713        2.81941935420659       -1.34782132730419
O           -6.48624614100949       -0.47908283988060       -1.80135275501452
H           -7.59748521749161        2.03845015701690       -1.75682191902394
C           -7.54691412881537        3.29807467915490       -0.02854301491639
C           -6.88943160545391        3.97096942718034       -2.35063413962940
H           -6.87884096535518        4.00451913618407        0.45941809125129
H           -8.49713152147291        3.79472550828626       -0.21027356742632
H           -7.72710900332362        2.46281416933549        0.64278758438329
H           -6.47561420150759        3.64009187125576       -3.30093679143601
H           -7.88574921479703        4.36642715054335       -2.53206522035197
H           -6.26585266565625        4.77529805986430       -1.96652300033835
N           -7.26285020317819       -0.44753211938186        0.36036873000837
H           -7.89647919105091       -0.38990360329925        2.04812107264619
C           -8.23653850143813       -1.48429061733379        0.10511838423553
H           -8.82019142840007       -1.27800349056045       -0.80088912336884
C           -7.58673437517415       -2.86613295693459       -0.02736542069529
C           -9.18346943300440       -1.51456416146159        1.31380048437220
H           -6.95386664371814       -3.05688002665811        0.83654527606870
H           -8.36347376749389       -3.62387144673448       -0.08134753653445
H           -6.97850668379156       -2.90394035362901       -0.92715993219987
O           -8.73778826357269       -0.81056230727858        2.34708275723145
O          -10.21096685995306       -2.13403553957121        1.32767766323503
