42
 energy: -62.486133495678 gnorm: 0.000482913699 xtb: 6.7.1 (edcfbbe)
N           -1.09798953974260       -0.72656997026105       -0.63725155101726
H           -0.42265264849074       -1.46123939620008       -0.80981868139266
H           -0.74224436091911       -0.15851002284644        0.12710346256788
H           -2.10683710258470        0.56856905332248       -1.58264526343328
C           -2.39892471808350       -1.28680177016309       -0.27146637722072
H           -2.61858750719640       -2.09357811414512       -0.98258881851890
C           -2.48087843561817       -1.83348693117797        1.15078947377613
C           -3.44342518381917       -0.19894885978817       -0.51229873558716
H           -2.22943254047077       -1.05294204871086        1.86610877441188
H           -3.49432862277324       -2.16425617108923        1.34945509555248
H           -1.79385144222030       -2.66747864003213        1.27915302345038
O           -3.04793938126544        0.75470653358199       -1.38176167872727
N           -4.55341002567967       -0.30316410825264        0.05957772607553
H           -6.02711420228361        0.08089973619268       -2.36299620947276
C           -5.68148452985185        0.59382419744453       -0.02476654486618
H           -5.96640416107974        0.76657471847488        1.01939095307208
C           -5.50907472751106        1.94130349153239       -0.73791250849011
C           -6.78443267766412       -0.24670703194126       -0.63713826754590
H           -4.74632035365874        2.51196889849259       -0.20460353303390
H           -5.13535238581660        1.79257266252779       -1.75448278394880
C           -6.80781149612625        2.75627341098119       -0.79901857399961
O           -6.75657911555349       -0.41928952227321       -1.97391669101649
H           -7.57975040894596        2.15842146955342       -1.29788889296233
C           -7.31687532958115        3.12735959231431        0.59175710067343
C           -6.57009954911522        4.02093933267469       -1.62360764804765
H           -6.54134376624459        3.64095791511854        1.15625108859230
H           -8.17480679000580        3.79044253678928        0.50869141867966
H           -7.62815266987879        2.24537504478221        1.14485853877466
H           -6.22778102332549        3.77418988870224       -2.62651551409395
H           -7.48767193197413        4.59782684264066       -1.70932348475030
H           -5.81599698865522        4.64462878825009       -1.14823222426788
N           -7.62311302204096       -0.80749928307365        0.11392163808849
H           -8.45616897991747       -0.95210177883201        1.72475132805170
C           -8.65098888559011       -1.67883886488842       -0.41128699521561
H           -9.10868495898310       -1.27232887741869       -1.32182762388295
C           -8.09772821042069       -3.07559687323309       -0.71611105710880
C           -9.73092869428512       -1.81261787204744        0.67183139122260
H           -7.60143556114796       -3.47685364601461        0.16508118631402
H           -8.91574930525739       -3.73271905041856       -0.99755536696858
H           -7.38034484713464       -3.01914196964503       -1.53079991079189
O           -9.35627802941686       -1.33297927684333        1.85181140142477
O          -10.79721713768031       -2.32520983025288        0.47421642196997
