42
 energy: -62.486133516330 gnorm: 0.000478774836 xtb: 6.7.1 (edcfbbe)
N           -0.98165075378834       -0.70010574767314        0.75059938017944
H           -0.01288112332737       -0.82954206628640        0.48507093752289
H           -1.24963460093668       -1.49496867990313        1.32477957996173
H           -2.15459752276366        0.67147827253178        1.46690094412495
C           -1.84515507049458       -0.62433750317751       -0.42601668819480
H           -1.38126775055992        0.08620977154966       -1.12318911018666
C           -2.06788268536587       -1.95568106360873       -1.14163443330073
C           -3.15484449205746        0.00244800290778        0.02909410270876
H           -2.58261165030670       -2.65461618019811       -0.48578555563755
H           -2.67448724929638       -1.80256764725526       -2.02789632524265
H           -1.11344899336306       -2.38641392544729       -1.43842390597924
O           -3.06639920040261        0.76579472569675        1.12637679302244
N           -4.20905353424745       -0.19593511716738       -0.62949305297366
H           -5.24478911526974       -1.34818538680612       -1.70899184750547
C           -5.47022480312640        0.39343964512526       -0.22938805218118
H           -5.50353153486465        0.60677850901735        0.84378518618919
C           -5.67713431028531        1.69940505435382       -1.02134075751528
C           -6.53641276032073       -0.62119036696065       -0.58160060480838
H           -4.85242812666852        2.36854628729135       -0.76446985714178
H           -5.59613506745565        1.46235209223972       -2.08558443910571
C           -7.00772752523813        2.41004002663380       -0.76142309600466
O           -6.18982902805834       -1.51426000250980       -1.51619679977638
H           -7.82383431027127        1.71583939377423       -0.98148972042789
C           -7.13412216191103        2.86779985529705        0.68900243901332
C           -7.12895392022797        3.61008753125419       -1.69987668454685
H           -6.31777364259623        3.53955627102661        0.94743433958340
H           -8.07311059610258        3.39656038131403        0.83238463949208
H           -7.11586106423713        2.02148409998354        1.36965926903350
H           -7.07215378733978        3.29671200582046       -2.73988468222624
H           -8.08041558144798        4.11290881358538       -1.54669551622565
H           -6.32933309898007        4.32378681632952       -1.51143195371849
N           -7.66248491076995       -0.57087122445579       -0.01605682887062
H           -8.92699614564261        0.41506323887820        0.84544523591947
C           -8.71790471223295       -1.49920017533411       -0.35914113218357
H           -8.75242086722671       -1.70182550366129       -1.43735836809704
C           -8.56146390818543       -2.82840831071547        0.38736851656898
C          -10.04669225705083       -0.85733343983910        0.06505909180815
H           -8.48038250054409       -2.64572081518802        1.45704076992395
H           -9.43082732068530       -3.45132789077769        0.19658825531210
H           -7.66581646738254       -3.34137823523464        0.04560175675083
O           -9.89690934825992        0.24811757808310        0.78502982416745
O          -11.11660776083040       -1.32256493560007       -0.21491665878501
