42
 energy: -62.486133509594 gnorm: 0.000480199637 xtb: 6.7.1 (edcfbbe)
N           -1.39417319202657       -1.69943916385860        0.82202930929380
H           -0.38329945474715       -1.75039007441574        0.83385072759464
H           -1.74442669719547       -2.62094427440959        0.57498514228973
H           -2.84651573698143       -1.08563863912903        1.92170747602473
C           -1.86402899962852       -0.70808753920986       -0.14285949761587
H           -1.24610913930384        0.19003928946865       -0.02230240566263
C           -1.81071174047955       -1.15857099112134       -1.60232448029093
C           -3.27722912962572       -0.31569029470427        0.26575562005909
H           -2.36516236565825       -2.08701334501279       -1.73277790964403
H           -2.25539838323341       -0.39418789465122       -2.23115467399217
H           -0.78084690864007       -1.32290243715277       -1.91186055692769
O           -3.61379237006590       -0.62339076972427        1.52590773875400
N           -4.02032002356207        0.29210309180407       -0.55413531568472
H           -4.85528924199131       -1.47123071132950       -1.12118983141450
C           -5.36949887638566        0.66396034158460       -0.17380130191481
H           -5.41259694501792        0.97876802459989        0.87644259184900
C           -5.75035723098298        1.83478566186069       -1.09866675366898
C           -6.29686978513957       -0.52752361048566       -0.33135114623454
H           -4.99961063386834        2.61133440828077       -0.93603784834053
H           -5.63974551599309        1.48617666109658       -2.12758856737606
C           -7.14412278821261        2.43740903032258       -0.91857611802364
O           -5.76643924409463       -1.65688073533728       -0.83943946143701
H           -7.88691541976737        1.67437923271207       -1.16264584122566
C           -7.38064931764599        2.91794347297406        0.51053675608473
C           -7.31639923977453        3.59991410883328       -1.89574956721101
H           -6.63274528868224        3.65724085737040        0.79080667269307
H           -8.36286932111298        3.37686991826216        0.59266362325270
H           -7.33154654588453        2.09049484056079        1.21288607075625
H           -7.16151250160473        3.26975995827411       -2.92019731765921
H           -8.31921968725808        4.01208185277447       -1.81759031739188
H           -6.60186806080800        4.39134770809597       -1.67839497550200
N           -7.52534016267014       -0.40036465708711       -0.08074215298304
H           -8.99204102922096        0.60406723884725        0.42702099621643
C           -8.44777239671363       -1.49745236966517       -0.27168760799402
H           -8.30362863936179       -1.98534491805040       -1.24422496147379
C           -8.31674515782771       -2.55291986578078        0.83316432931630
C           -9.86830155855145       -0.92063923168633       -0.20694963601836
H           -8.42187402296095       -2.08357573262186        1.80945201697010
H           -9.09590805691389       -3.30004176496656        0.71061777621419
H           -7.34282952199117       -3.03187152394849        0.77331178626089
O           -9.92055038789900        0.31466795078040        0.27617782546358
O          -10.84093054170993       -1.54126894029872       -0.53613311450862
