42
 energy: -62.486133505315 gnorm: 0.000481266872 xtb: 6.7.1 (edcfbbe)
N           -0.86663887478154       -0.47541250622299        0.54630276484653
H            0.08461553937757       -0.59502698740071        0.21974966466294
H           -1.05318291321427       -1.21245954789267        1.22093051874204
H           -2.04965014005868        0.92576187381253        1.19806611978166
C           -1.81711170764256       -0.56268782501228       -0.56075617962532
H           -1.44378208075129        0.09151844406539       -1.36002341182850
C           -2.02120168614125       -1.97021198279606       -1.11974748012954
C           -3.11985470901363        0.04972735447668       -0.06926536758168
H           -2.44984715920045       -2.61988903075486       -0.35937562272293
H           -2.69552067611589       -1.93670486278773       -1.96906513580731
H           -1.06918853923833       -2.38653115118545       -1.44350920133089
O           -2.98879647455463        0.93760698807032        0.92505989079671
N           -4.21130723690338       -0.27297006440484       -0.60743759497519
H           -5.14539232845954       -1.70929259030010       -1.23222764326169
C           -5.46746973089483        0.30284608482230       -0.16991818877631
H           -5.45588229080402        0.52860428012878        0.90259491036036
C           -5.68825161282569        1.60859342403523       -0.95973002435226
C           -6.53229044379929       -0.74055461102168       -0.45251983354347
H           -4.85456351117209        2.26976716203014       -0.70974140432416
H           -5.61653542205125        1.36797245342370       -2.02359976307072
C           -7.00410853807202        2.34393054763139       -0.70010814658698
O           -6.10369256792197       -1.84702905702687       -1.07156393628125
H           -7.82902558090049        1.69997600063018       -1.01406033201859
C           -7.18208143048664        2.69197152204997        0.77490120111529
C           -7.03939824585892        3.61617601401964       -1.54628487499628
H           -6.34439924356167        3.29079158516547        1.12732609999910
H           -8.09610024919418        3.26353422516843        0.91592569470626
H           -7.24642496997113        1.79283859507113        1.38123568540270
H           -6.92258825384981        3.38247718306417       -2.60200172322697
H           -7.98824500468504        4.12954131940995       -1.41339729426957
H           -6.23902626329413        4.29286123721397       -1.25316047200069
N           -7.73735109467888       -0.51914510221189       -0.14985654155691
H           -9.07652582465471        0.57181391390978        0.46327639491239
C           -8.76869453391907       -1.49204499279313       -0.44069399197601
H           -8.69352722240436       -1.86543517446915       -1.46996762823033
C           -8.72013714234804       -2.68675213640017        0.51912096622649
C          -10.12286853168062       -0.79217604520325       -0.26420412632477
H           -8.74955006530337       -2.33678676683860        1.54930111212370
H           -9.57715658592604       -3.32880474793782        0.33637754742329
H           -7.80462598561174       -3.25083312134630        0.36081088057790
O          -10.03566461599749        0.39506995483032        0.32385545091210
O          -11.16314731159712       -1.28465771969902       -0.60368398901874
