42
 energy: -62.486133510454 gnorm: 0.000480264825 xtb: 6.7.1 (edcfbbe)
N           -0.78028113798791       -1.14020738541781       -0.53662310398440
H           -0.31519682053664       -2.00666375823913       -0.78092203335047
H           -0.48329646771402       -0.88682116921063        0.40178119108721
H           -1.10940586460475        0.63794622059167       -1.15844626248156
C           -2.23242281463029       -1.29403522478121       -0.57150710918287
H           -2.47768773960345       -1.80827763747998       -1.51094558696633
C           -2.79883706189024       -2.08461168322391        0.61023554677349
C           -2.85094067727295        0.12290841119672       -0.63911073558966
H           -2.57155934282519       -1.57082526204898        1.54305344972390
H           -3.87657571066863       -2.18758910748990        0.53250392151699
H           -2.35935471707374       -3.08015887544715        0.64236683898425
O           -1.97595130046873        1.07434319213268       -1.03489087960414
N           -4.01434452832981        0.38653629051185       -0.33691174275526
H           -4.73893090346588       -1.18373166968304       -1.36729183471659
C           -5.35622973072404        0.68061380351597       -0.08325850177263
H           -5.46373603778559        0.79204177388717        1.00135460914817
C           -5.75098315397414        2.01542922762242       -0.76868941136513
C           -6.26210062807722       -0.45951376978109       -0.54006303215288
H           -5.02576218319246        2.75908954445990       -0.43351474952642
H           -5.61573441241323        1.88801632363848       -1.84464182087675
C           -7.16678775635238        2.53260153319368       -0.50297858727724
O           -5.67855309636641       -1.42053947919877       -1.27646547015498
H           -7.88251205442472        1.81793987436220       -0.91674172325422
C           -7.44640371167661        2.70248178524790        0.98768996347530
C           -7.35674171788050        3.86679784014060       -1.22372796521742
H           -6.73131207899251        3.39251809365529        1.43173417787157
H           -8.44609839513602        3.10376774872746        1.13637815684728
H           -7.38294730007427        1.75108072723208        1.50913888835137
H           -7.16268307369882        3.76251646918199       -2.28876695723580
H           -8.37630211088894        4.22196193114599       -1.09582868931852
H           -6.67819107206834        4.61741608472166       -0.82358175773961
N           -7.49204448931017       -0.42605575709623       -0.27068671198350
H           -8.98619765353890        0.41971169594181        0.43274513551604
C           -8.39603200993922       -1.45610418945169       -0.73678791414069
H           -8.23795330399321       -1.68574593370359       -1.79814093703256
C           -8.25126917574530       -2.74934608317345        0.07360508276297
C           -9.82708700507220       -0.93417214930656       -0.54930117743111
H           -8.36708754698433       -2.53821748848172        1.13512979976319
H           -9.01796750556149       -3.45431263931148       -0.23443910151242
H           -7.27060696868539       -3.18532839293949       -0.09798894350108
O           -9.90567783268686        0.15336646475302        0.20842301892455
O          -10.78598170136378       -1.47657804909987       -1.02370340375283
