42
 energy: -62.486133505063 gnorm: 0.000480976900 xtb: 6.7.1 (edcfbbe)
N           -1.39786560928237       -0.76439835103973        0.20459337179611
H           -0.72091362774228       -1.51162669713196        0.10786966124736
H           -1.28056288706158       -0.36561596790735        1.13222369571898
H           -2.06276948099540        0.73205572247299       -0.77651919837019
C           -2.76136294061851       -1.27594745658446        0.05891428077142
H           -2.77599037807379       -1.90041167239764       -0.84398515580972
C           -3.26758292880039       -2.09351989272844        1.24334242420188
C           -3.66451735884019       -0.07860202157384       -0.22970888227291
H           -3.26662147337093       -1.48649408443462        2.14576670383839
H           -4.28444783824539       -2.41738646823830        1.05286481066150
H           -2.63456293421555       -2.96467055132084        1.40033244540406
O           -3.01281107598280        0.97088846561576       -0.77676520617435
N           -4.88131343283568       -0.18087191068556        0.03976544176840
H           -7.60276778914576        1.02719066045588       -2.01869895893558
C           -5.94594292558586        0.76785593598617       -0.16211364748069
H           -6.16089283233158        1.17300795462056        0.83751324026019
C           -5.70453709335114        1.93893221351487       -1.12609509869954
C           -7.14854083822920       -0.09919419772544       -0.52845406521701
H           -4.70053337560394        2.32191673849636       -0.94848057814998
H           -5.71291007880779        1.57257457844797       -2.15873873309030
C           -6.70079087068141        3.09718161334647       -0.94080877373349
O           -7.92099881608168        0.22592503087001       -1.58324803054201
H           -7.70645527447763        2.70539470235208       -0.74299875756032
C           -6.30043386091756        3.96247022972662        0.25291196855500
C           -6.75253713028927        3.95330433021295       -2.20608408680032
H           -5.32700130321656        4.41658070943467        0.08051758338134
H           -7.02754632546953        4.75649710181616        0.40679992028900
H           -6.24653519599610        3.37204937677012        1.16449788223209
H           -7.09499577441880        3.37691728057796       -3.06416857669473
H           -7.43151051234668        4.79185146409473       -2.07028518465953
H           -5.76414942018449        4.34703095864617       -2.43290719453745
N           -7.35355728246465       -1.11405140202452        0.18337412401499
H           -6.80299053004317       -2.09408253121438        1.54298315672280
C           -8.40993741512409       -2.06896260011068       -0.03669923129632
H           -9.39583503212392       -1.58680482515406       -0.02140388309556
C           -8.25992150014595       -2.84473750734522       -1.34961089981051
C           -8.33327607045486       -3.06918372841305        1.13238437928525
H           -7.26030598590863       -3.27006238949658       -1.41350197517981
H           -8.99143114334812       -3.64766915025522       -1.37334367500140
H           -8.41939363903590       -2.18360567094946       -2.19700136956165
O           -7.27378699519631       -2.88786449900207        1.90761637601469
O           -9.14535429067120       -3.93588733056408        1.30628490888871
