42
 energy: -62.486133520580 gnorm: 0.000478965856 xtb: 6.7.1 (edcfbbe)
N           -1.52421429917178       -0.97209304930546       -0.16827927713030
H           -0.90127576577324       -1.77099577233888       -0.17253851604264
H           -1.19135803317121       -0.33076657112436        0.54702484469753
H           -2.37936188719609        0.21208628888667       -1.41617733183769
C           -2.89452925008267       -1.38343219795789        0.14141359453494
H           -3.12869265671382       -2.23797160684396       -0.50680462279891
C           -3.13092451543611       -1.77857422052747        1.59568543194825
C           -3.81549263455971       -0.24878034192339       -0.29792247460122
H           -2.90762238220433       -0.94106395291624        2.25323449675113
H           -4.17136344622991       -2.05213876239531        1.73205797771281
H           -2.49799783041570       -2.62166726318878        1.86587946229253
O           -3.29913813415660        0.51886185510353       -1.28158007791203
N           -4.93957231355924       -0.15289336523487        0.24373094834967
H           -7.60971302988045        1.14650624000652       -1.91620842556514
C           -5.99355686245899        0.78552792415660       -0.04934539706164
H           -6.28121238024434        1.18254140335527        0.93584386138474
C           -5.68283345364023        1.96657016462481       -0.98058260499713
C           -7.16370374319173       -0.08103619941333       -0.50530284277406
H           -4.67841739840141        2.32046951279378       -0.74773378736732
H           -5.65055053613174        1.62328022438942       -2.01930206092197
C           -6.65832222663285        3.14603208787580       -0.81360061087405
O           -7.92157569558426        0.30943479137433       -1.54866071251444
H           -7.67350559453228        2.77492763292563       -0.62401388438202
C           -6.25574866986770        4.00838101817725        0.38166279172781
C           -6.68040334699071        3.99713254199713       -2.08315596147454
H           -5.28127470920892        4.46054939969167        0.20973593915813
H           -6.98010935028699        4.80469466515343        0.53708701296434
H           -6.20309714450185        3.41511398568146        1.29147358921281
H           -7.02661743268876        3.42434155438395       -2.94216659666775
H           -7.34246450327090        4.85075236251242       -1.95757477332217
H           -5.68173969421683        4.36849307254307       -2.30266681986118
N           -7.35770879493144       -1.15411332058221        0.11885854337218
H           -6.85809391324762       -2.19158988884690        1.45452621118364
C           -8.39283786811496       -2.10618847560418       -0.19325338690674
H           -9.38473970032505       -1.63636467539091       -0.20246043428732
C           -8.16860530210984       -2.81411890553807       -1.53365600261212
C           -8.35574540491591       -3.16152638246508        0.92854736191667
H           -7.16423915122071       -3.23225043350430       -1.56546251925940
H           -8.89246049321937       -3.61772067511443       -1.63695968338263
H           -8.28719646337693       -2.11111224399218       -2.35388671492251
O           -7.33584334429326       -3.00574403971986        1.76012810016924
O           -9.16233193856285       -4.04558027976861        1.02134071336231
