42
 energy: -62.486133505519 gnorm: 0.000480820333 xtb: 6.7.1 (edcfbbe)
N           -1.37540690577834       -1.47140303484655        0.71541862602663
H           -0.94944582486796       -0.75140798973503        1.29007122856762
H           -0.63367392675892       -2.05992359920775        0.35470444919145
H           -3.09538233580730       -1.72671642685908        1.50883674489749
C           -2.14163975879598       -0.87454239241441       -0.37846674929940
H           -1.66226958198849        0.00133119903261       -0.83506402892548
C           -2.40518772347931       -1.92266127916653       -1.46050766796350
C           -3.48259844893483       -0.44390162522567        0.19093416347093
H           -2.87849691891349       -2.80057833857673       -1.02487188208820
H           -3.06284716059841       -1.50437787510637       -2.21646299177181
H           -1.47205031165215       -2.22516358942050       -1.93088498754815
O           -3.85613180869183       -1.14703308791934        1.29182630940369
N           -4.10915348957236        0.48495700429514       -0.36326492320846
H           -5.61879307722324       -0.63098398478192        1.87856269378458
C           -5.43400425089435        0.96310900691401       -0.02271661245071
H           -5.35579722025574        1.52165080692792        0.92367302897969
C           -5.86276644147341        1.91008112577156       -1.14633923220131
C           -6.44741476079216       -0.14315998572108        0.19554818722559
H           -5.02994250007861        2.58967500005508       -1.33199144136959
H           -6.01638705641083        1.30305474254595       -2.03722157714073
C           -7.13498053997862        2.71270762228882       -0.86082029567941
O           -6.48693021273485       -0.70153922310959        1.45207784453672
H           -7.94177993139256        2.01264830101882       -0.62437130050052
C           -6.95796424326497        3.67914781892020        0.30878487228776
C           -7.52745293514752        3.48869010631927       -2.11674035721324
H           -6.11170936615914        4.34011296579143        0.13127795194460
H           -7.85027092424315        4.28948871592277        0.42685987786276
H           -6.79467015897756        3.15030445287667        1.24457511315086
H           -7.68791595307209        2.80843024653808       -2.94882090089015
H           -8.44530031747544        4.04703514345238       -1.94923995773622
H           -6.74240821022123        4.19098823292748       -2.39012281050870
N           -7.22284248202716       -0.45071668936894       -0.73743871891717
H           -8.28539685964630       -0.74653779341733        1.58765899844019
C           -8.24039682763264       -1.46797307652651       -0.71950055562006
H           -8.57705577901419       -1.55788309285877       -1.75901241847896
C           -7.76797185237299       -2.84281530814493       -0.22491503107518
C           -9.47033750559812       -1.05125955841080        0.10291940679884
H           -7.50124429425550       -2.81844474551548        0.82939085654799
H           -8.56181017101554       -3.57089049222837       -0.37155139554746
H           -6.89540429861110       -3.15027888593175       -0.79745533556762
O           -9.23390138721523       -0.69686676791850        1.36440017921155
O          -10.57905750701782       -1.06837942307835       -0.35080411974441
