42
 energy: -62.486133514935 gnorm: 0.000479337438 xtb: 6.7.1 (edcfbbe)
N           -1.52949644735069       -1.41850562190925       -0.75160057193171
H           -1.40407946916856       -1.92750825526648       -1.61682372338607
H           -1.16417790713295       -1.99453630347158        0.00029985948290
H           -1.13765987226068        0.17041231466923        0.06575532683822
C           -2.93824124619956       -1.09553466272870       -0.50657770731419
H           -3.45855732505407       -1.08175023535274       -1.46758225633627
C           -3.60925995768799       -2.10476444947098        0.43032704976142
C           -2.99862381104996        0.30624383929801        0.15548539823696
H           -3.07880390646077       -2.13234383711100        1.38138956730812
H           -4.63943472101098       -1.82612318135243        0.62999736227694
H           -3.59634525899083       -3.10029183592559       -0.01136537341183
O           -1.78998382537375        0.78987080510933        0.46109807468405
N           -3.98812659819545        0.95007486905079        0.57798556271158
H           -5.13610089693870        0.10314337059138       -1.95593334634160
C           -5.37455778095905        1.05126185578487        0.27374640432384
H           -5.86023325147604        1.25871901614479        1.23398647102974
C           -5.54356139498041        2.28839620207906       -0.63649716094059
C           -6.11487109062993       -0.12612197891108       -0.32944107199557
H           -5.08288269863604        3.12759364766476       -0.11464062393308
H           -4.97100644292429        2.13658361631466       -1.55822090107119
C           -6.99515488443269        2.63137415112346       -0.98987590118669
O           -5.76026384208205       -0.52774201216215       -1.57454644567730
H           -7.45332936068255        1.77840744500024       -1.50395594763028
C           -7.82176692523980        2.94257733338957        0.25467495150837
C           -7.00719863176309        3.82842366811035       -1.94014716851581
H           -7.34007382823387        3.71872531702652        0.84483532713485
H           -8.81007786325995        3.29267511518340       -0.03299295772256
H           -7.94615941789374        2.05753492291336        0.87194415271558
H           -6.43664743134170        3.61814294127627       -2.84247726573239
H           -8.02621800046439        4.07098191406976       -2.23078040866831
H           -6.57222271162540        4.69893920835816       -1.45437962377110
N           -7.12428424049090       -0.58527008280239        0.26880612577712
H           -8.37425426298281       -0.45811860442318        1.60271687125672
C           -7.95853594259520       -1.61020306087496       -0.31717121862817
H           -8.16594646300338       -1.40238047995688       -1.37525114867393
C           -7.33473522552707       -3.00578165482781       -0.20787873299499
C           -9.28707369203583       -1.61327064533900        0.45426527025130
H           -7.05981211483835       -3.21225093723651        0.82480694769375
H           -8.05979525398920       -3.74499075919744       -0.53673866420922
H           -6.44839456340311       -3.06768794894475       -0.83426773925290
O           -9.26358962124390       -0.87666003590683        1.55831627185663
O          -10.24465307619168       -2.24026053164185        0.09764965530108
