42
 energy: -62.486133513774 gnorm: 0.000479770452 xtb: 6.7.1 (edcfbbe)
N           -1.46226337721380       -1.03832253940163       -0.15759242100085
H           -0.88659652255192       -1.87006699155815       -0.21137330567251
H           -1.04591120330025       -0.42347697098813        0.53669002769091
H           -2.31481276498204        0.20317227402583       -1.32438437679992
C           -2.83015592669953       -1.37554759614591        0.23998314720125
H           -3.15062883901146       -2.21973464794784       -0.38413277022785
C           -2.99247159216726       -1.75296861638085        1.70925039878330
C           -3.72021560657011       -0.19630807891887       -0.14983071361339
H           -2.65977390678486       -0.93520048609076        2.34572074439710
H           -4.03829104806206       -1.94806764704792        1.91849240974095
H           -2.40861431712897       -2.64200887731558        1.93797692347225
O           -3.20762299280034        0.56215277439085       -1.13876977663058
N           -4.81313228024016       -0.06522897828621        0.44575855964225
H           -8.19638449941276        1.65972715686559        0.51436814773559
C           -5.86411116621875        0.89311805006358        0.23296659352373
H           -5.90158651341578        1.51180152303380        1.14169666012568
C           -5.70365651052024        1.79190034721578       -1.01288676602563
C           -7.14360681496597        0.08057692730414        0.17587388190756
H           -4.73206589212553        2.28170104807907       -0.93617310356927
H           -5.67039030746781        1.13433874142059       -1.88412690474178
C           -6.76486686178696        2.87328258548352       -1.24704184653554
O           -8.32489392980617        0.72073363500066        0.33374330685821
H           -7.74999399940148        2.40997323558938       -1.36948507866347
C           -6.81140446433504        3.89222555536271       -0.10754352282626
C           -6.44378435750344        3.59618784968142       -2.55622180570489
H           -5.84439395465073        4.38141587361687       -0.00864495620960
H           -7.55840530551813        4.65578373266751       -0.31483997215891
H           -7.05441532546980        3.43945946015906        0.85286768087742
H           -6.42880185246446        2.89544154641902       -3.38736085403480
H           -7.19126914452844        4.35857546843643       -2.76391610613720
H           -5.46971344445763        4.07645346275020       -2.49608137100542
N           -7.05703047576945       -1.16641609739314        0.05736580164355
H           -5.99492799661488       -2.55953803311627        0.30074609300791
C           -8.18710792908035       -2.05779976486621        0.04924705674028
H           -8.91602846927276       -1.80462920888552        0.83069142615256
C           -8.90121462407146       -2.07170748701249       -1.30560965230135
C           -7.62623932157587       -3.46268767764562        0.33674098810549
H           -8.18139987591108       -2.25464822584885       -2.10070706348356
H           -9.64482456140827       -2.86362321714488       -1.30914505571545
H           -9.38809306182746       -1.11547498772441       -1.47990718413829
O           -6.30332850432067       -3.49329435485289        0.42812635478432
O           -8.32176170533939       -4.43329644255353        0.45640330208227
