42
 energy: -62.486133514461 gnorm: 0.000480415659 xtb: 6.7.1 (edcfbbe)
N           -1.43587090055701       -0.61449702103947        0.56888583985454
H           -0.68014808640452       -1.26932842218990        0.40706759944271
H           -1.50611098575569       -0.47314952976232        1.57311772359257
H           -2.08545134764027        1.05694546184113       -0.09505129162214
C           -2.70118075777103       -1.14408848216865        0.05845965371719
H           -2.51027347760532       -1.50947086638867       -0.95930942781924
C           -3.30827800373943       -2.26901167902605        0.89167626908155
C           -3.66005876289354        0.03483027925938       -0.07890401481674
H           -3.49640348798956       -1.92579409939484        1.90628672794440
H           -4.25364801658166       -2.57173088533377        0.45623022923909
H           -2.63482026513193       -3.12310409734032        0.92456879653254
O           -3.04241661292225        1.22831863766968       -0.21550577192830
N           -4.89012028207661       -0.19473978970985       -0.05770443006462
H           -7.75013919847684        1.04142864019028       -1.93693781060554
C           -5.96686428198969        0.75515001067996       -0.20088324596967
H           -6.13675690893294        1.19822247444237        0.79108503991271
C           -5.74557298977702        1.88679613438821       -1.21697606728366
C           -7.18699089085878       -0.10977498096502       -0.50367674221948
H           -4.71761232242830        2.23258269984857       -1.11608914091458
H           -5.83932950722368        1.48605858043747       -2.23254942050584
C           -6.67840426224567        3.09271476687349       -1.00904863191935
O           -8.03672830743786        0.23396652253814       -1.49143705860620
H           -7.68356430560191        2.75107457095831       -0.73080513536338
C           -6.16206754360314        3.97893635661753        0.12302087298817
C           -6.78100211240308        3.90652140526593       -2.29889458008184
H           -5.18609317392078        4.38590899291849       -0.13199131501706
H           -6.84531051911827        4.80641159722736        0.30010643054342
H           -6.06517955085820        3.41527726763170        1.04775862092761
H           -7.20028755139732        3.31520706169266       -3.11161138194405
H           -7.41761158615634        4.77558378381186       -2.15052286821193
H           -5.79558191635283        4.25290994612646       -2.60281303204100
N           -7.34051203301415       -1.13289358973913        0.20904268906322
H           -6.64738901132501       -2.15321439662651        1.47096890703873
C           -8.40282119845722       -2.09380914531564        0.05812125287952
H           -9.38763352755798       -1.62410263429300        0.17683373953793
C           -8.36689697259231       -2.83411262363392       -1.28319053416864
C           -8.21001563085955       -3.12319012071374        1.18822342017205
H           -7.37370213900032       -3.24664170067435       -1.44943618737099
H           -9.09052785084668       -3.64426014011208       -1.26160967861580
H           -8.60875416976708       -2.15334252088591       -2.09471587334987
O           -7.07908197772890       -2.95828084809103        1.85903895688114
O           -8.99897883043356       -3.99833345979778        1.41810603575486
