42
 energy: -62.486133505980 gnorm: 0.000480866034 xtb: 6.7.1 (edcfbbe)
N           -1.86946773423823       -0.55739941665187        1.55776921350746
H           -0.93678566465276       -0.93583338830817        1.44480251917592
H           -2.27858082185522       -0.99904201679910        2.37693637927192
H           -2.80109131951008        1.12828910443246        1.57590118211819
C           -2.69448707687102       -0.84616529809229        0.38371618090746
H           -2.10192417001703       -0.58158796708860       -0.50205237163668
C           -3.15829269830287       -2.29579726547242        0.26638881593800
C           -3.87555424382834        0.11133756530640        0.42207775598020
H           -3.71228142235514       -2.58834369643793        1.15539569574461
H           -3.81482372092985       -2.39339144078466       -0.59078187974197
H           -2.30470355474702       -2.95985065357497        0.14670313030965
O           -3.67415952271346        1.23032869610486        1.14537567441807
N           -4.92974142020895       -0.17594762902690       -0.19717829550398
H           -8.23598779684871        1.37017350644126       -1.17905168210090
C           -6.05673984162715        0.72641080875111       -0.20673414366910
H           -6.16579462140076        1.21703046725356        0.77455432231193
C           -5.89084675353806        1.81355606158455       -1.29025765940425
C           -7.28811546792127       -0.12818328444280       -0.43219377216960
H           -4.82242754307640        1.94875670044800       -1.46751198638473
H           -6.31925604349465        1.45111418899250       -2.22908391419637
C           -6.49511238034425        3.17403079620120       -0.90405902367951
O           -8.39397900219266        0.44407803273446       -0.95634928805757
H           -7.43189606003786        3.02411154654688       -0.35024642129258
C           -5.53600467674538        3.94000095433350        0.00516571877846
C           -6.80309272976035        3.99419854423475       -2.15611393030884
H           -4.64415362947537        4.22553048842649       -0.54838965265251
H           -6.00751670401553        4.84265786044559        0.38685350685795
H           -5.22762637693098        3.32644349786394        0.84760557670436
H           -7.52934649223432        3.49019445454477       -2.79167454770435
H           -7.20688837070967        4.96626198403552       -1.88277830469726
H           -5.89548148345477        4.15179483534321       -2.73445534427376
N           -7.23752457337125       -1.32933273103743       -0.07089904350669
H           -6.23167482320865       -2.61805264935363        0.58849579716997
C           -8.31691257370256       -2.27493077656835       -0.18944767986954
H           -9.22698051063011       -1.91432896201541        0.30677538913851
C           -8.65099177790556       -2.62148148103319       -1.64421809489479
C           -7.83848500986732       -3.55467937046824        0.52179996396904
H           -7.74703905288582       -2.92634343954539       -2.16761701224440
H           -9.36612731897540       -3.43920355819100       -1.66125624012290
H           -9.07742258873090       -1.75655304999958       -2.14535920137590
O           -6.55760092185953       -3.51525133670029        0.86169075803066
O           -8.55327280845282       -4.49662684457033        0.72863766056606
