42
 energy: -62.486132256079 gnorm: 0.000630289693 xtb: 6.7.1 (edcfbbe)
N           -0.96726447576798       -1.47093028775277        0.34738006388711
H           -0.83499914138918       -1.33049784725542        1.34348280946066
H           -0.05266864202826       -1.51933291011152       -0.08593008493883
H           -2.54470041391507       -2.46701997170564        0.21952156502221
C           -1.76286439788088       -0.38890345931150       -0.23172854168218
H           -1.55519812529275        0.59655530925850        0.20501107261544
C           -1.53518317393414       -0.32417349707969       -1.74187032715853
C           -3.23232876721096       -0.72156741483893        0.01485944857741
H           -1.73486942273735       -1.29371234530236       -2.19353982155991
H           -2.20283332148981        0.41291715192946       -2.17748815866087
H           -0.50746532552977       -0.04095720058091       -1.95954381172800
O           -3.43914871019177       -2.05780899844438        0.19012699586083
N           -4.05296236940511        0.21203111317955        0.00364606265207
H           -5.10123193659548       -2.09703965095274        0.34404653872278
C           -5.46905997576168        0.41517158433009        0.10965923820486
H           -5.59725682892992        0.97863351077627        1.04354632296078
C           -5.74641478640770        1.37953168781536       -1.07303052609958
C           -6.46836514769205       -0.73635469291909        0.16501673100008
H           -4.92003899466730        2.09335603695079       -1.05651807131614
H           -5.66326937766798        0.80152811491419       -1.99607080883082
C           -7.06301086705622        2.15972619419737       -1.09853470987876
O           -6.07075410820090       -1.99772864121466        0.35585376890562
H           -7.86830757082807        1.47544183435632       -1.36875878546536
C           -7.38327118000111        2.80731708215845        0.24495575531944
C           -6.97471577576698        3.23167556231069       -2.18541234275094
H           -6.56341830056837        3.44867873292129        0.56255695141819
H           -8.28026007435181        3.41616330085092        0.16076545132499
H           -7.55403622063350        2.05352793909910        1.00888849640303
H           -6.72821114592594        2.78679334713220       -3.14653061089911
H           -7.92643540827467        3.74772917152476       -2.28282398743271
H           -6.20953784481501        3.96540427821550       -1.93966162432712
N           -7.69569170811902       -0.44805972585145        0.04650040928557
H           -9.16802347384730        0.72621119756915       -0.04212507512828
C           -8.69705421137161       -1.49242777160405        0.11255237373269
H           -8.43069508127656       -2.35422123432052       -0.51144474640120
C           -8.92529830116314       -1.97653178208067        1.55181744290734
C          -10.02196075681804       -0.90119223786319       -0.37681740049518
H           -9.17242766817122       -1.13256702730612        2.19375568687847
H           -9.74651699708153       -2.68769657414003        1.56727041383057
H           -8.02583969087494       -2.45726550145036        1.92716497813687
O          -10.06455791300017        0.42576897001288       -0.30843560314240
O          -10.94804362608975       -1.57019891964123       -0.74317867752155
