42
 energy: -62.486133502698 gnorm: 0.000481053304 xtb: 6.7.1 (edcfbbe)
N           -1.05478302955493       -1.57154216102755        0.21632728550833
H           -0.90855814250255       -1.50864159359728        1.21836291635732
H           -0.14643644578551       -1.63218736581753       -0.22813515909461
H           -2.70952525848246       -2.47987791804357       -0.00678625653761
C           -1.79910020817405       -0.41304138717056       -0.27673854641999
H           -1.53003505567660        0.53136754533399        0.21408733974724
C           -1.59614296284841       -0.26994279538608       -1.78528152883177
C           -3.27665560129994       -0.68267373378539       -0.02134990879879
H           -1.86784939225355       -1.19493711422116       -2.28971821168571
H           -2.22109271278466        0.53397335321925       -2.16205387692348
H           -0.55588218661586       -0.04171474165897       -2.00784580905610
O           -3.56983466113029       -2.00927100059400        0.04247561269925
N           -4.04870083139792        0.28944770825547        0.09252020984955
H           -5.04117616377638       -1.94804313371076        1.04896804982530
C           -5.47230845170898        0.42642505421856        0.21195247916713
H           -5.60235459221949        0.97734381487758        1.15805879604953
C           -5.92337800960348        1.35212565059563       -0.93576277659523
C           -6.39402972848156       -0.77834301617000        0.35347227310437
H           -5.05140630208281        1.92846436145345       -1.24967002424666
H           -6.23718553644156        0.72831898389512       -1.77321969272859
C           -7.05027057911122        2.31941288516715       -0.55353373690507
O           -6.00655874200293       -1.84127628079571        1.07582071885082
H           -7.79674949919159        1.77066275693690        0.02721393619825
C           -6.51920307165727        3.47403341777942        0.29363374819741
C           -7.71398057909597        2.86927151337362       -1.81494593696746
H           -5.80806108480718        4.06662252367930       -0.27838330884004
H           -7.33555090843046        4.12296976033710        0.60261982211784
H           -6.01792493072974        3.11224567706998        1.18803060008763
H           -8.14410517695885        2.06990855463907       -2.41350348128848
H           -8.50979167292587        3.56242208979693       -1.55255287512442
H           -6.98475516771190        3.40102201455051       -2.42348800974654
N           -7.56775219884918       -0.66523829806419       -0.09855073857901
H           -8.67309520884904        0.04557706148555       -1.34405289471276
C           -8.55163948889505       -1.70709878647938        0.07747653693107
H           -8.11057581025123       -2.71112232946069        0.02594009902525
C           -9.28034811443639       -1.55572412827943        1.41775884638305
C           -9.58098006211136       -1.55426753641309       -1.05104260360472
H           -9.69266591227200       -0.55215783107767        1.50492588294211
H          -10.08888182429054       -2.27924659219608        1.47180184198066
H           -8.58523528975037       -1.72618279390384        2.23628859423176
O           -9.45439261946425       -0.41901035031179       -1.72896279013408
O          -10.42723804427728       -2.37209952476873       -1.28322240247518
