42
 energy: -62.486133518831 gnorm: 0.000479047648 xtb: 6.7.1 (edcfbbe)
N           -1.13910773603038       -0.47486938541531       -1.63510621050151
H           -0.33858138101013       -1.06484416303450       -1.82521058687005
H           -0.78901070534157        0.41153735709249       -1.28058145994613
H           -2.74673954827030        0.10688284768370       -2.47319609421716
C           -2.02232196036014       -1.08916607401556       -0.64455769298296
H           -2.15605396976985       -2.13974747442840       -0.93652915365243
C           -1.51179151636960       -1.02952716041771        0.79275588783160
C           -3.38476381763894       -0.41173200840274       -0.78123961121258
H           -1.33863073742003        0.00370582595159        1.08554473912975
H           -2.25705160715892       -1.45125492942777        1.45782852712804
H           -0.58229166265660       -1.58673438775252        0.88993407757086
O           -3.58909801952376        0.17108857655724       -1.97629733463985
N           -4.19114158911488       -0.48215764471857        0.18187043923358
H           -5.12883543088174       -1.87085005945194       -1.14817333398659
C           -5.51425500719134        0.09871966727215        0.23083007561737
H           -5.75976438872519        0.13371571370506        1.29824603027464
C           -5.56243446477905        1.53118042050417       -0.34117650763951
C           -6.53833842287696       -0.80767403247994       -0.42987858424335
H           -4.74284365134689        2.08048592712348        0.13088343542537
H           -5.36034172495717        1.48489588724739       -1.41213080392553
C           -6.86668843791256        2.30249774858941       -0.12855689866111
O           -6.09605936180357       -1.84341829327415       -1.16473883965440
H           -7.66467935276489        1.78591018958665       -0.66689386050489
C           -7.25149662057412        2.40782693807142        1.34447050496025
C           -6.71676068267465        3.70082644890625       -0.72812001735174
H           -6.44980680095312        2.87313256878928        1.91495237977337
H           -8.14573425017420        3.01690406000768        1.45185577809138
H           -7.45649974335807        1.42850747149018        1.76807429901481
H           -6.44564747764481        3.64330873770186       -1.77974052352136
H           -7.65239148294409        4.24811789549906       -0.64631478453003
H           -5.94466529536750        4.26112171359380       -0.20421908787688
N           -7.76351227608933       -0.55083739085535       -0.27963427564837
H           -9.13519631178437        0.51429770932404        0.34728954159669
C           -8.78741204612657       -1.36346453679727       -0.89890792921016
H           -8.56508713708399       -1.56361196263919       -1.95452563585689
C           -8.97552933975444       -2.70089249645108       -0.17235874760530
C          -10.10842180975967       -0.58728174993377       -0.80687773802916
H           -9.15433234228082       -2.52597989053808        0.88688679658380
H           -9.82926383157032       -3.22183632443964       -0.59663412989997
H           -8.08485685599542       -3.31331783853625       -0.28570571100166
O          -10.06138297140387        0.44970007756687        0.02088006433881
O          -11.09736949844932       -0.90719174038915       -1.40606191342789
