42
 energy: -62.486133519254 gnorm: 0.000479067235 xtb: 6.7.1 (edcfbbe)
N           -2.55118708077645       -1.59110404710389        1.59034371379253
H           -1.59508445625120       -1.67559051942190        1.91081030304312
H           -2.92876896655785       -2.52488980946990        1.46651081298415
H           -4.21368136543035       -2.45504496893003       -0.34731313485786
C           -2.62539040023195       -0.79615656979812        0.37555924677632
H           -2.20703595193766        0.18679260496357        0.60629515660558
C           -1.87675626607596       -1.39870529697854       -0.82645999967494
C           -4.09573751118836       -0.57707912432776        0.05819240869485
H           -2.22220349113657       -2.40833621088094       -1.05289246824665
H           -2.01890893216536       -0.77774923137730       -1.70709799308363
H           -0.81218317179277       -1.45145647496269       -0.60815446592292
O           -4.78147006495877       -1.67288845501828       -0.35100195134208
N           -4.53017492423446        0.59122176119504        0.14277043624801
H           -8.18449435631810        1.74100848125547       -0.17880671901747
C           -5.85528789830383        1.13075669013054        0.00558284013522
H           -5.89473253609674        1.93569861263982        0.75296053669771
C           -5.87504188682872        1.75307278574947       -1.41854623982950
C           -7.05464330654511        0.24044640414272        0.25911436271569
H           -4.85318731791480        2.10223999096935       -1.58700485697897
H           -6.06445304617183        0.94560746772186       -2.13034579669473
C           -6.81836064081971        2.92697083615109       -1.72422023513670
O           -8.27009543569264        0.81314042598482        0.06841565558118
H           -7.85340658711946        2.57465378989691       -1.81507745093751
C           -6.74737012565468        4.03100185677342       -0.66984295937263
C           -6.43310543397433        3.50186949248575       -3.08954084006298
H           -5.71547909761264        4.34218823481307       -0.52428662261035
H           -7.32174383512138        4.89500572670579       -0.99722326472230
H           -7.14649413038492        3.71489263421509        0.29232332874875
H           -6.45483623250823        2.72762143716760       -3.85282931358002
H           -7.12592949508170        4.28802688771161       -3.38047115358867
H           -5.43100486653027        3.92309412550445       -3.05516871229994
N           -6.93754641807636       -0.91437267979583        0.73686018354603
H           -5.88714848605803       -2.29455414334939        1.23842133464819
C           -8.06934364911849       -1.74884571850384        1.05818538547371
H           -8.78789061423497       -1.22486148936096        1.70108411279461
C           -8.79835282754112       -2.24953257480556       -0.19434287148410
C           -7.52264451803895       -2.97199366624410        1.81007911695719
H           -8.08686203022326       -2.71832089966044       -0.87145457128745
H           -9.55044886613245       -2.97799106931349        0.09554075905843
H           -9.27762161830400       -1.41746870913377       -0.70318100652629
O           -6.20361475476368       -3.08978422144836        1.73633961472039
O           -8.22647205231633       -3.76065812879015        2.37866820800111
