42
 energy: -62.486133506019 gnorm: 0.000480570562 xtb: 6.7.1 (edcfbbe)
N           -2.73950623436239       -1.65226132702366        1.87811779140442
H           -1.83984212952103       -2.10561846017057        1.98143800043583
H           -3.45702278881619       -2.35785589013932        2.03092712640367
H           -3.76416143813938       -0.15077740405228        2.44549881574202
C           -2.88872439144246       -1.08851180237228        0.53723974029945
H           -1.99165811753455       -0.49063616719827        0.32860857328397
C           -3.07809232756975       -2.12455863467729       -0.56903586852199
C           -4.06902791799854       -0.13157354587766        0.59732024165679
H           -3.92476491509623       -2.76518054596550       -0.33333374868723
H           -3.27935754457587       -1.61876967667189       -1.50674505984375
H           -2.18664759457903       -2.73991137590636       -0.67080982972042
O           -4.36765355435045        0.31548432663164        1.83030376182456
N           -4.69738819131869        0.16166647692688       -0.45203695218491
H           -8.05904774174045        1.24013582415972       -1.54976847934418
C           -5.87103455715179        1.00510075927241       -0.38515401170487
H           -5.91652444152173        1.55108476675478        0.56953776087617
C           -5.84259973780189        1.99767177025268       -1.55556682805940
C           -7.06320530068500        0.05944404836364       -0.41262539109123
H           -4.79597612156700        2.24348763039716       -1.74355655156553
H           -6.20726918629857        1.50256169776149       -2.46021468091451
C           -6.61779166686875        3.29837443809137       -1.28954559078554
O           -8.17234488441580        0.39551673254887       -1.09452289539619
H           -7.55681303024036        3.07491958271004       -0.76585798330348
C           -5.80424361533355        4.23606244448256       -0.39934873401055
C           -6.95302786424988        3.99216604762854       -2.60931912405393
H           -4.89096467018613        4.53850444763560       -0.90698235564697
H           -6.37782746235160        5.12923301325534       -0.16258719404127
H           -5.53106553307443        3.74950045045309        0.53371751735577
H           -7.57650883796446        3.36255082203197       -3.24188110323569
H           -7.48604677980440        4.92201825849839       -2.42543086413480
H           -6.04023453250249        4.22355365279860       -3.15353076006552
N           -6.94007886415215       -1.00628645733079        0.24262525864014
H           -5.85616574811432       -1.89930531740296        1.22148827470366
C           -7.89928142927873       -2.07246460434148        0.35221181145250
H           -8.81283816259586       -1.73306251919845        0.85767695844374
C           -8.27661390926646       -2.70305792082282       -0.99070603048992
C           -7.22773234368285       -3.14058100027680        1.24043563909084
H           -7.37445206540361       -2.96852088733778       -1.53856788767992
H           -8.86049938886519       -3.60115209314506       -0.80940996505334
H           -8.85864170049689       -2.00373574469442       -1.58453211103683
O           -5.99693389454237       -2.80555763278728        1.61364955237919
O           -7.75658067827604       -4.17168407665534        1.54920849815607
