42
 energy: -62.486133517065 gnorm: 0.000479622350 xtb: 6.7.1 (edcfbbe)
N           -2.37645778948797       -0.86437963825959        1.95881165918925
H           -1.42389262082348       -1.20227130463893        2.02810128893990
H           -2.97984311951374       -1.57242705434704        2.36986442883745
H           -3.44226198696214        0.71868418896598        2.26906162138582
C           -2.75444237037871       -0.65771976948338        0.56077134100777
H           -1.97291844162315       -0.03498768377121        0.10379802593796
C           -2.92072043805211       -1.93825482518742       -0.25319906459891
C           -4.02549814524896        0.17652483451093        0.57233250330155
H           -3.59857909328583       -2.62016206120826        0.25451808164113
H           -3.33938701519351       -1.69545992672403       -1.22340257557466
H           -1.95916306367193       -2.43052642899862       -0.38490007883644
O           -4.16745335667538        0.96086738306604        1.65872767101450
N           -4.84001023006215        0.09898979510153       -0.38089433495282
H           -8.41343561262798        1.25743084479984       -0.93136350797483
C           -6.04802579231228        0.88750509651023       -0.39431983076830
H           -6.08399152431211        1.58705759187788        0.45691782024290
C           -6.13002240415210        1.67070142659457       -1.72025027947060
C           -7.21315278809207       -0.06385976533865       -0.22129405208197
H           -5.12893442584971        1.68249739526658       -2.15428941982622
H           -6.76857895008093        1.13108979898376       -2.42471907583413
C           -6.61873156209747        3.11757313960157       -1.56003020965937
O           -8.44582045155247        0.36419776552792       -0.56544883613292
H           -7.49018259469086        3.14360985017932       -0.89100032845880
C           -5.52642703061988        3.98921224526857       -0.94394297611030
C           -7.03988693784546        3.68128336619036       -2.91604320957539
H           -4.67194107361277        4.04772634862742       -1.61443677024677
H           -5.89608301983626        4.99690098190057       -0.76851294017909
H           -5.18715495702317        3.57964310574054        0.00439839234908
H           -7.85292035137628        3.10046731244816       -3.34751282249094
H           -7.37360929308101        4.71110017392578       -2.81306038229406
H           -6.20111798716779        3.66068209226639       -3.60796832378574
N           -6.98225920982662       -1.18971579251007        0.28442329384454
H           -5.77677405196593       -2.21339653359043        0.98420566112416
C           -7.96932344722817       -2.19868016483194        0.56780660902473
H           -8.80225194574381       -1.79835456423473        1.15986012799047
C           -8.52893132419751       -2.85080079521030       -0.69993863132562
C           -7.24096649249085       -3.27182168446885        1.39929271860920
H           -7.71137348575538       -3.20444029543327       -1.32489330068997
H           -9.15613000896002       -3.69312682179065       -0.42174507008363
H           -9.11783737172491       -2.12911876535452       -1.26005643276759
O           -5.93216571949197       -3.06078609187837        1.48288861652641
O           -7.79753375707104       -4.20548026272083        1.90637711017665
