42
 energy: -62.486133508720 gnorm: 0.000480402425 xtb: 6.7.1 (edcfbbe)
N           -1.02528974959896       -0.47728457023623       -1.13977549557869
H           -0.37588064080791       -1.08919308114651       -1.61905685062955
H           -0.62226527780127       -0.25280277918209       -0.23400989262916
H           -2.10259118442313        1.08893804275391       -1.47126138108659
C           -2.31971618681212       -1.13277323230719       -0.95610273121804
H           -2.61339617921253       -1.54683641631334       -1.92917486556084
C           -2.33032226447549       -2.24739402488914        0.08587306484080
C           -3.34133096315862       -0.04588341166758       -0.63389167155495
H           -2.01326489093874       -1.86050595438538        1.05225342890655
H           -3.33973603482167       -2.63064726282285        0.18462363558335
H           -1.66190752583032       -3.05356496932419       -0.21025777703525
O           -2.99551392193245        1.17568291979056       -1.08092375166539
N           -4.38009294446903       -0.37293540626752       -0.01454118913959
H           -7.09393715089188       -0.12053537876194        2.10183530298256
C           -5.49174303014381        0.47334579652281        0.33918491353294
H           -5.35134160336707        0.74415155702099        1.39678437567202
C           -5.69875107918014        1.74540033521458       -0.50097362142309
C           -6.72527654083201       -0.39694697281354        0.20662633352138
H           -4.82034570494866        2.38327598873555       -0.40631570133029
H           -5.78098574458617        1.42472857339694       -1.54036891025073
C           -6.94893041106961        2.54602903761411       -0.11861844162062
O           -7.50594640322641       -0.54470996136753        1.34015994854104
H           -7.81627696427473        1.87657914307520       -0.10370925302377
C           -6.80691760113771        3.20530087858576        1.25277029181352
C           -7.20305662675187        3.61605235837342       -1.17856035910924
H           -5.94430136334155        3.86867390725856        1.26297956735936
H           -7.69327015758176        3.79324953653619        1.48038303765491
H           -6.68151397851567        2.47200161654374        2.04693445216458
H           -7.35805699166924        3.15759640363586       -2.15168187095829
H           -8.08776189587385        4.19743386082606       -0.92972842376980
H           -6.35317699950090        4.29190575222941       -1.24616333719309
N           -6.97754775856227       -0.92368945062594       -0.89652980764701
H           -9.11017380708024       -0.45582631595591        0.50065010943849
C           -8.07850995317914       -1.79165965244371       -1.22247650789298
H           -7.86568494924843       -2.16151069572549       -2.23215812156909
C           -8.24910690532514       -2.98755483057237       -0.27576704997236
C           -9.41183215847115       -1.03300587989184       -1.30807639227757
H           -8.52339653550858       -2.66822284825381        0.72728340756696
H           -9.02327532660625       -3.64670561748636       -0.66097826258889
H           -7.31141045753936       -3.53558896248464       -0.21960965486316
O           -9.77033631769157       -0.36375062802654       -0.21198527859083
O          -10.10201908306747       -1.05284314180918       -2.28671013445988
