42
 energy: -62.486133513194 gnorm: 0.000479860117 xtb: 6.7.1 (edcfbbe)
N           -1.79658313625419       -0.21437335411783        0.81237170640355
H           -1.10712591833652       -0.66023505080203        1.40805390476527
H           -2.36391145299149        0.40627616181748        1.38017214564929
H           -3.99192984157840       -1.75465316293778       -1.72869154975901
C           -2.66313541547941       -1.20910671145075        0.21161261272579
H           -2.14562987231867       -1.60327814607129       -0.67753646594729
C           -3.01386656791841       -2.38592065785974        1.14321240547856
C           -3.96883679791163       -0.56889186646527       -0.20696454648682
H           -3.52078989945381       -2.00790639760168        2.02821503816101
H           -3.66715085334468       -3.10195908594099        0.64995041299311
H           -2.10386493938666       -2.89950936704571        1.44744190915859
O           -4.55018365235041       -1.07666177306287       -1.32449097744232
N           -4.41909564413958        0.36555823014898        0.49615800142331
H           -7.97070155205734        1.66173530225428        0.80600474293952
C           -5.67855816821710        1.04219670337737        0.33757843044098
H           -5.76524943685955        1.68874514885123        1.22178055043760
C           -5.60796471816161        1.90973153252446       -0.94430921729702
C           -6.89289424144547        0.14268487166955        0.29357158808501
H           -4.64378715883634        2.42360440627795       -0.91847783019807
H           -5.59485544814690        1.22157872107334       -1.79196733843604
C           -6.71403979650159        2.94832417582762       -1.15584214663487
O           -8.08142161764091        0.73064364009800        0.57837208068211
H           -7.68979139582970        2.45061362781024       -1.17849640356256
C           -6.71269300944694        4.02219547425038       -0.06774383263726
C           -6.50857995453836        3.60920597211017       -2.51961250572222
H           -5.75332467205386        4.53488928240586       -0.05257230634098
H           -7.48911510415174        4.75809314515636       -0.26565593761180
H           -6.88738475624702        3.61184571093391        0.92546477488685
H           -6.53684704415210        2.86773819132349       -3.31439242747085
H           -7.28847125918103        4.34324318367023       -2.70825393561331
H           -5.54580291401940        4.11417438733431       -2.55509364192609
N           -6.78895051879655       -1.08902356507212        0.07700919596420
H           -5.79872838611731       -2.47854389857977       -0.50194986691508
C           -7.91475962798763       -1.99072115041851        0.06302337045760
H           -8.52922375443307       -1.88980794906653        0.96569745917188
C           -8.80226537941049       -1.78950698898996       -1.17134955059658
C           -7.33074260272195       -3.40949300568445       -0.00353678117907
H           -8.19837229578291       -1.84751697153328       -2.07519899259026
H           -9.56224341426248       -2.56549099488395       -1.19902128341383
H           -9.28263768147939       -0.81551575854575       -1.12735180374423
O           -6.06420940273143       -3.42828794891999       -0.40553453093260
O           -7.96047190138118       -4.39870022098352        0.24729171730514
