42
 energy: -62.486133528223 gnorm: 0.000477484611 xtb: 6.7.1 (edcfbbe)
N           -1.12401308161605       -0.79876298113241        0.85843047993256
H           -0.15640677979959       -0.96287078828988        0.60933172622046
H           -1.41830737226966       -1.56116070905692        1.46278826316211
H           -2.27157559892282        0.58014690637649        1.53536550576829
C           -1.97305550598151       -0.75254377564409       -0.33077175158069
H           -1.46745137239657       -0.11715196313929       -1.06946947881327
C           -2.26435007873518       -2.11683413890195       -0.95349431952005
C           -3.25558341186287       -0.03250693237044        0.06360949633471
H           -2.78063690005501       -2.75242492673979       -0.23691620301995
H           -2.90041197405054       -1.99576137516543       -1.82351388034411
H           -1.33726441120508       -2.60138865656028       -1.25380172346230
O           -3.16822867288937        0.72043975723407        1.16835368289172
N           -4.28527976023130       -0.15498753876673       -0.65001303801868
H           -5.56182326422473       -0.80814564050860       -2.18345402075474
C           -5.51529094098257        0.52845303899181       -0.30048364967495
H           -5.57555428763178        0.73741676274616        0.77248403486198
C           -5.62630799867821        1.84045314784989       -1.09471573294763
C           -6.62456094202572       -0.41743404038087       -0.69286733904717
H           -4.80449965415990        2.48965508831804       -0.78514770912258
H           -5.48982634485252        1.61392184040255       -2.15611758143881
C           -6.96055226884336        2.56856460444226       -0.90240766730325
O           -6.46446805414160       -1.01062154594249       -1.88621785356754
H           -7.77389683530725        1.88130483983058       -1.15929938283208
C           -7.15234970454927        3.02808592129504        0.54023457377581
C           -7.02248349194701        3.76800486780418       -1.84696568111725
H           -6.32888105996128        3.67035837362116        0.84591324207157
H           -8.07906642184308        3.58889794178404        0.63314568976700
H           -7.20357625430906        2.18033952859476        1.21724256708740
H           -6.92035984629810        3.45227218447497       -2.88289675878993
H           -7.97275584801372        4.28495187590357       -1.74012315418998
H           -6.22264081908564        4.47017901514277       -1.62057767524709
N           -7.57790418270761       -0.64258817543703        0.09882005488793
H           -8.65884653835865       -0.00355575167179        1.40660898679992
C           -8.65378366476851       -1.54489473464007       -0.25173782270976
H           -8.90933089865515       -1.49036889505129       -1.31746679761183
C           -8.29667021754923       -2.99318640649781        0.09882209126180
C           -9.88266484476934       -1.13347826834260        0.57240480154255
H           -7.99858732925159       -3.05852944682591        1.14328982997167
H           -9.16365153278386       -3.62679349191183       -0.06555376898919
H           -7.47478856954578       -3.33277186052419       -0.52673029886816
O           -9.61527763144049       -0.22425586285457        1.50231939739603
O          -10.97322689300439       -1.60245362463843        0.40051385117761
