42
 energy: -62.486133502868 gnorm: 0.000481054302 xtb: 6.7.1 (edcfbbe)
N           -1.85868817910443       -2.32656684591152        0.14340124055802
H           -2.17565029142748       -2.74128941081947        1.01394852154592
H           -0.86664857073653       -2.51264074691904        0.05343578097500
H           -3.42563443724505       -2.40386359650283       -0.96611884667626
C           -2.11986413578596       -0.88787880958345        0.13379567699550
H           -1.90183419779408       -0.38606484712578        1.08566294921198
C           -1.30877265401535       -0.22523630259371       -0.98047760574041
C           -3.59903652129676       -0.70782784606627       -0.17417657457333
H           -1.51636627210946       -0.70695157398502       -1.93403299074756
H           -1.57250691383895        0.82589657438379       -1.04775559199711
H           -0.24401832231422       -0.30814272221973       -0.77345746232765
O           -4.11378875250468       -1.70690973548955       -0.93051062561456
N           -4.17783024445085        0.32066820030263        0.23783337973068
H           -5.75656227067762       -0.95971021540979       -1.78661807519348
C           -5.54313169643370        0.74017399832386        0.04858411418295
H           -5.80962569848574        1.23529004687514        0.98801110895197
C           -5.55539806595831        1.78018136248094       -1.09075072408373
C           -6.61274992081901       -0.30359032849152       -0.20820920206796
H           -4.84124494320897        2.56198064968212       -0.82571043757528
H           -5.19170684666373        1.30107359540487       -2.00537137621341
C           -6.92677783104464        2.40630848535028       -1.36570104497538
O           -6.62431802316862       -0.99255473729448       -1.35934822138584
H           -7.63133620567417        1.61316058571329       -1.63884613910454
C           -7.47458698090260        3.13732164965050       -0.14316074224446
C           -6.80601630693801        3.37044466517788       -2.54547451205054
H           -6.75060856906951        3.86208031904846        0.22294237488707
H           -8.38767341195904        3.66657761266621       -0.40494051773761
H           -7.70860743172818        2.43916518988754        0.65548497305682
H           -6.42917119167457        2.85938240223495       -3.42893343045807
H           -7.77582933117658        3.79785332071031       -2.78722467318729
H           -6.12448501256946        4.18261691272037       -2.30112188779670
N           -7.52496082728205       -0.41033064876725        0.65901197183870
H           -8.38861309187605        0.20435562819783        2.12600054968356
C           -8.63220726590930       -1.32452598165507        0.47872407935618
H           -9.04485711320800       -1.26762523615711       -0.53638093531616
C           -8.22547052104317       -2.77445251027372        0.76549752866335
C           -9.72412705536824       -0.91981167888336        1.47862722148248
H           -7.77803055000186       -2.84475742202800        1.75514616726887
H           -9.10662745715921       -3.40856990350784        0.72641114937206
H           -7.50395714778154       -3.10977522059558        0.02465403315010
O           -9.31916822395708       -0.01750174399790        2.36530193388333
O          -10.82770276997914       -1.38997890989771        1.47078184375036
