42
 energy: -62.486133517179 gnorm: 0.000479501340 xtb: 6.7.1 (edcfbbe)
N           -0.90653727184217       -1.07312979679250        0.33476128923674
H           -0.54839028023423       -0.30625818845738        0.89411952487863
H           -0.11911557120338       -1.52750516264558       -0.11180898190496
H           -2.43329872196475       -1.64332290567978        1.27745982819706
C           -1.86325967896998       -0.58923839190913       -0.66088990724966
H           -1.60173160223064        0.38531384893669       -1.09263531656915
C           -2.00875833473718       -1.61159969000255       -1.78840419172091
C           -3.20651868842726       -0.45778275758148        0.03655231443308
H           -2.27322737761373       -2.58591504071700       -1.38231856400154
H           -2.78902610983923       -1.28898215476933       -2.47129390527309
H           -1.07488408978111       -1.70308187560364       -2.33866909962792
O           -3.32340226557069       -1.24922964187399        1.14037313569209
N           -4.06060437977190        0.33162043206072       -0.41923535367028
H           -5.01276267566203       -1.73435954268317        0.94153808323314
C           -5.40275236441942        0.54808777574089        0.08009361974388
H           -5.34899604621165        0.77353798454674        1.15999201742288
C           -5.96869481264838        1.75603557616311       -0.67231950446956
C           -6.29422680853576       -0.67626980777718       -0.03183593960237
H           -5.15607108751760        2.47467137768932       -0.78843310990864
H           -6.25972236073480        1.42151598759055       -1.66753331354804
C           -7.15516288312628        2.43436883710351        0.02154460156572
O           -5.89499771862928       -1.82182622928834        0.54020076773239
H           -7.84349172498145        1.65985606238009        0.37146787447145
C           -6.69761255275485        3.26347597702641        1.22054262094503
C           -7.89185841586903        3.33111422691604       -0.97190303058428
H           -6.01992493347770        4.05170147600802        0.89862782701697
H           -7.55243102907807        3.72624777142335        1.70836076286212
H           -6.18348668426001        2.65013476581561        1.95661363539580
H           -8.27272696204364        2.75432391694041       -1.81089247482704
H           -8.73216409162666        3.82387759346237       -0.48855132648278
H           -7.22178056419803        4.09711613522716       -1.35664646505572
N           -7.40701884710329       -0.56248341296393       -0.61401443562711
H           -8.47797294120342        0.34784900991059       -1.73562203752919
C           -8.33097280509474       -1.66612095660906       -0.73024514366667
H           -7.82332944999554       -2.60629062445327       -0.98010004314016
C           -9.13521288493303       -1.86544468839014        0.55961251972695
C           -9.31137209745063       -1.31125510081918       -1.85876463950201
H           -9.61809916411126       -0.93251450832971        0.84423469422549
H           -9.89555584279539       -2.62364659954734        0.39522178622202
H           -8.47467634308323       -2.18313849392102        1.36253246141689
O           -9.21799111874321       -0.04861706018186       -2.25683469081493
O          -10.09637167856566       -2.09486198381457       -2.31596280945201
