42
 energy: -62.486133517022 gnorm: 0.000479440897 xtb: 6.7.1 (edcfbbe)
N           -2.51332842535652       -1.80173014255418        0.56325824620881
H           -1.83712358777673       -2.11133311469705       -0.12460466179425
H           -3.08294624511653       -2.60426412642664        0.82182113006696
H           -2.55756139251695       -0.88297570071797        2.09703501180351
C           -3.37291243877303       -0.74431730898544        0.02181832144881
H           -2.70526029005400        0.01615912042234       -0.41397365327152
C           -4.27246303724472       -1.28508818590905       -1.08841620677937
C           -3.97979993134662       -0.00076312064084        1.25036749637463
H           -4.81687764888631       -2.15826349656953       -0.74140149404742
H           -4.98783952523435       -0.55467407734656       -1.44580018936705
H           -3.64568032707148       -1.58831733708499       -1.92852500882383
O           -3.23987592348919       -0.21485076809610        2.34213724498326
N           -4.85546319332706        0.89310757044572        1.37707660534359
H           -8.26827618687004        1.41660061657772       -0.24187461656898
C           -5.97493452928360        1.29392593433877        0.58949458584621
H           -6.53369556242436        1.98237902191932        1.24461660451946
C           -5.50881854716832        2.09830337896020       -0.65106838906705
C           -6.92190737702416        0.14673198425470        0.30041932303943
H           -4.83149729667251        2.86393341900612       -0.26410440660140
H           -4.91615785917303        1.44175834414337       -1.28850584876734
C           -6.57618395956596        2.78431652597520       -1.51193576188951
O           -8.15429141442505        0.46177598851071       -0.15747983161553
H           -7.26388890436087        2.03293064393143       -1.91675941061543
C           -7.36041873844824        3.83898549071453       -0.73097851248715
C           -5.88839969271846        3.45167185271662       -2.70471005246923
H           -6.68346304743836        4.61092276898930       -0.37266607891180
H           -8.10161682386271        4.30845190514687       -1.37378507309515
H           -7.87850158600910        3.42747092385569        0.13372105334239
H           -5.34578985935687        2.71948471677937       -3.29787439688378
H           -6.62281714061682        3.93307056969151       -3.34579287215232
H           -5.18407868105368        4.20637764968935       -2.36291189625379
N           -6.58856932036118       -1.02622970016779        0.60427612016587
H           -5.46467930686218       -2.03698680550681        1.59057091276659
C           -7.44054314019854       -2.18276051973281        0.47317770343070
H           -8.30801560746754       -2.08477713211224        1.14180475231472
C           -7.94991036130343       -2.45647114435115       -0.94307675517430
C           -6.61689464206213       -3.37978827799416        0.98191588088858
H           -7.12250524721247       -2.44976456712155       -1.64926975576938
H           -8.41782230457962       -3.43679029642059       -0.96053827805581
H           -8.67348984584823       -1.70228993444045       -1.23786597505087
O           -5.49770252349984       -3.02466500829114        1.60895962953131
O           -6.94326168310858       -4.52260362704063        0.82417707903519
