42
 energy: -62.486133509633 gnorm: 0.000480444800 xtb: 6.7.1 (edcfbbe)
N           -1.22969781662336       -0.52685948712631       -1.41238435829079
H           -0.60237877480262       -1.16855963818392       -1.88234801622223
H           -0.75180061232578       -0.18365377014822       -0.58407798193928
H           -2.41861163249178        0.92849822951419       -1.85172010756413
C           -2.46975137722919       -1.19980116996484       -1.02623387441709
H           -2.83471439283509       -1.73691521736696       -1.91086946882322
C           -2.33305240133127       -2.18090365344643        0.13311538105617
C           -3.50740474642260       -0.11833589210105       -0.73829278990624
H           -1.94332359943068       -1.67166766514631        1.01188635059867
H           -3.31145425159164       -2.58000620895574        0.37403217214887
H           -1.66176584909907       -2.99512977437769       -0.13324576146093
O           -3.27639610985206        1.03618915058206       -1.39312806525871
N           -4.45327618948990       -0.39868460246386        0.03184966789756
H           -7.71594929233732        0.45203801955458        1.58238276107538
C           -5.58300913723262        0.40784882664227        0.40150629623466
H           -5.52112380564483        0.51230627358647        1.49576496354848
C           -5.68408452164853        1.80150107437871       -0.25492520982972
C           -6.81579715272424       -0.40874846946562        0.07810540214208
H           -4.75233894499062        2.33246882392527       -0.05516506016422
H           -5.75239579739498        1.64618761593447       -1.33263963904934
C           -6.85462829226933        2.68086768311761        0.20013859842258
O           -7.91869808727414       -0.18618047790345        0.88782472796472
H           -7.79941944722583        2.14547838218970        0.05558421771508
C           -6.72485532327075        3.09861124454737        1.66559412406919
C           -6.90417584841365        3.93071950673954       -0.67856418971256
H           -5.81904456736547        3.68495018458441        1.80562890222120
H           -7.57483563074841        3.71077750938453        1.95992470156769
H           -6.67616948329470        2.24618707042860        2.34183789069452
H           -7.04459621454581        3.65848984400452       -1.72147490151746
H           -7.72718961383745        4.57557712966367       -0.37876005077276
H           -5.97670562404502        4.49260262771954       -0.59220217754054
N           -6.78757645217900       -1.23014559186471       -0.86070602683213
H           -9.15852701094702       -0.28602759026078       -0.42184741451538
C           -7.84390582450331       -2.10889738664378       -1.28913371781866
H           -7.38614631815318       -2.76602553604767       -2.03764122510812
C           -8.44357336171147       -2.96901163743435       -0.16783833371917
C           -8.98234091300437       -1.36285244175709       -2.00195624599779
H           -8.96654980785074       -2.36075265975046        0.56692499771739
H           -9.14130399239406       -3.68525320726486       -0.59465601976089
H           -7.64442312679986       -3.50837359482643        0.33544477113071
O           -9.56389785175209       -0.38754122601959       -1.30406133850154
O           -9.34930204560874       -1.65299839438674       -3.10473889912671
