42
 energy: -62.486133524287 gnorm: 0.000478025961 xtb: 6.7.1 (edcfbbe)
N           -1.26576802110015       -1.19701597914089        0.41920717201085
H           -0.71177326385389       -0.34723879729910        0.44523971286547
H           -0.64146584823985       -1.96941744036523        0.21813701361676
H           -2.70007962263497       -0.82162460336248        1.64898365640677
C           -2.31299862570258       -1.10082717004864       -0.59717548305658
H           -1.99530477453570       -0.59564348981245       -1.51880892018694
C           -2.83405439205700       -2.49513974450826       -0.94722093256789
C           -3.45611066540528       -0.31192140095679        0.00906497065558
H           -3.15731737836028       -3.01324394614923       -0.04720276691122
H           -3.67745772487504       -2.40345885189156       -1.62437924651095
H           -2.05456384167097       -3.08149120345913       -1.42919298235417
O           -3.51753131993980       -0.36342672159376        1.36310233965457
N           -4.27505022765590        0.28143314195023       -0.73378611314052
H           -5.62573616774959       -0.40819991793343        1.79913979823915
C           -5.40843887759087        0.98555923403825       -0.15904009529489
H           -5.13763414970008        1.45032736169326        0.80097401586404
C           -5.84315199807413        2.04706551036795       -1.17196661202702
C           -6.45306920763301       -0.07760542853386        0.08855432132169
H           -5.05147955976547        2.79759853395965       -1.21726219256476
H           -5.89955394110771        1.55399095330072       -2.14131838531174
C           -7.18114782440047        2.73135298311050       -0.87789496246918
O           -6.40615726114584       -0.68476450089805        1.29698061115784
H           -7.97845955182318        1.99866329033917       -1.03929572771526
C           -7.26944506673078        3.25220884877733        0.55506775868098
C           -7.38575605181118        3.87751374177610       -1.86732970607888
H           -6.42402388811467        3.90055064486811        0.77682062035846
H           -8.18309648093042        3.82710576107436        0.68964306549334
H           -7.28132078520563        2.43657005317795        1.27410344844590
H           -7.31425719074556        3.51485932383759       -2.88954392196273
H           -8.36484249095468        4.33067934025511       -1.73056095659814
H           -6.62950227887977        4.64581411378516       -1.72104358993621
N           -7.23928056619526       -0.42596126500470       -0.83217252983209
H           -8.96881787650146        0.53985924827899        0.16629701063959
C           -8.15296450953769       -1.53634411412025       -0.65212654728900
H           -8.79547032212314       -1.53474084780579       -1.54620213496346
C           -7.44125278245762       -2.88478740377347       -0.55487740082992
C           -9.08868906246681       -1.33579307525580        0.54634369735882
H           -6.80093020974633       -2.90303823094446        0.32254095371533
H           -8.18104245865711       -3.67415647540716       -0.46003505455476
H           -6.83901421300649       -3.04924361994054       -1.44475520570761
O           -9.43089117881423       -0.05886145662321        0.77490531334868
O           -9.53128960016496       -2.22923220798447        1.20702110785383
