42
 energy: -62.486133502800 gnorm: 0.000481546373 xtb: 6.7.1 (edcfbbe)
N           -0.79341870669890       -0.24617908331566        0.33055873328489
H            0.13110198990264       -0.39418457796166       -0.05556406596184
H           -0.88676079536224       -0.85119961277011        1.14185825968123
H           -1.97617396052716        1.22805218666354        0.80499288313264
C           -1.82936536280450       -0.56544841916872       -0.65000915335391
H           -1.55652114109876       -0.05615742271984       -1.58430564632219
C           -2.01171257469351       -2.05696060793170       -0.92654329980230
C           -3.11274468562918        0.08750354108791       -0.15897242080897
H           -2.35306883354796       -2.56857681113205       -0.02914718973314
H           -2.74840333250873       -2.20220824569907       -1.70969345677880
H           -1.06881204655474       -2.49601826283678       -1.24689159066246
O           -2.93550798283230        1.15777433505093        0.62707527242776
N           -4.22916765453756       -0.38015055786627       -0.50312426765608
H           -5.16818192674335       -1.79320238350284       -1.12277824134387
C           -5.47960843121676        0.23179549624521       -0.09992130686329
H           -5.48543544894878        0.45048337631521        0.97354368475346
C           -5.66485898503562        1.54769576593705       -0.88405667435831
C           -6.56202545588631       -0.78452290239425       -0.41992754175850
H           -4.82662751624210        2.19441392412354       -0.61539591621998
H           -5.58001403612247        1.31231582197494       -1.94846817985852
C           -6.97117771092201        2.30632070974006       -0.64409733720135
O           -6.13900863490390       -1.90213919436574       -1.02002457574512
H           -7.80154610929076        1.68921131643052       -0.99496538992270
C           -7.18160658735255        2.62680302052709        0.83284063371714
C           -6.95418716806099        3.59658293047055       -1.46322211213414
H           -6.33697179988506        3.19194726574473        1.22233900584706
H           -8.08195560887934        3.22255819117502        0.96091585447958
H           -7.29037834814816        1.71650856023204        1.41596980404785
H           -6.80660476564803        3.38239681534187       -2.51930400761791
H           -7.89705403140805        4.12562713109108       -1.35097995650163
H           -6.15116922633796        4.25090562591728       -1.12938010361445
N           -7.77070369193774       -0.53169509584657       -0.15826936590393
H           -9.10105866900166        0.58978875591889        0.42175877845735
C           -8.81714299504351       -1.47589524257442       -0.48812239804017
H           -8.71974624553772       -1.84235391308410       -1.51816061153391
C           -8.82925357916968       -2.67991193236343        0.46134531466417
C          -10.15801290293594       -0.74298123849992       -0.34763141923134
H           -8.88606833807457       -2.33869629900280        1.49339546505287
H           -9.69407410148869       -3.30001712446370        0.24310223665116
H           -7.92203271661094       -3.26376977369101        0.32887502688807
O          -10.05929186145265        0.43817455606637        0.25089212189326
O          -11.19983928092176       -1.20661649793492       -0.72157185135093
