42
 energy: -62.486133519245 gnorm: 0.000479241320 xtb: 6.7.1 (edcfbbe)
N           -2.55625711003587       -1.54044348690039        1.79475024945628
H           -1.66342406831020       -2.01470742512014        1.85468620598575
H           -3.27436530687552       -2.20359150535375        2.07760254929307
H           -3.46236439802309        0.05971885879937        2.30809478196530
C           -2.82056182991263       -1.09523609754540        0.42710980333084
H           -1.93335309116857       -0.54894303250167        0.08079287859137
C           -3.14296821850736       -2.21974050256412       -0.55427199761068
C           -3.96557520123021       -0.09756038502295        0.51165428222222
H           -3.97598549000201       -2.80893114088063       -0.17826518352345
H           -3.42589409708592       -1.79414669611428       -1.51021737451490
H           -2.28019517189098       -2.86974161656187       -0.68594343407373
O           -4.11136674585003        0.48866315169967        1.71301118637106
N           -4.70540921286262        0.09446439588268       -0.48684353750950
H           -7.85160763487426        1.05315236911012       -1.89590611075646
C           -5.85071148225192        0.97785447004849       -0.39504092937217
H           -5.89151782933495        1.48215866979671        0.58084071300749
C           -5.77597222962047        2.01767767849312       -1.51791221401181
C           -7.05041988896020        0.04274518702262       -0.47922022942655
H           -4.74051768829469        2.35948837538431       -1.57431773517446
H           -5.98708275909849        1.53098101578592       -2.47513233315965
C           -6.68933831009001        3.23510136779355       -1.29906778986987
O           -8.04023781152358        0.27384872115947       -1.35679419773103
H           -7.64847061191771        2.91009765347595       -0.87630505325280
C           -6.05450836925475        4.21221862024202       -0.31124571538388
C           -6.95730006706362        3.93935057330739       -2.62889879952332
H           -5.12968341911714        4.61371219626324       -0.71989897369434
H           -6.72894756025345        5.04122350567215       -0.10965119392097
H           -5.82705282272687        3.72132184614402        0.63165220429725
H           -7.46583219424803        3.28211043995987       -3.33233429102940
H           -7.57997974938196        4.81737119815725       -2.47527239304953
H           -6.02031723658231        4.25988568940593       -3.07896942979984
N           -7.02206060622414       -0.93117646276990        0.31585398940142
H           -5.96152087863767       -1.75992903941410        1.38598511491686
C           -7.95429819466626       -2.02189798607138        0.40749964575688
H           -8.89462721109616       -1.68903850091125        0.86545417385068
C           -8.26151038433918       -2.71386814366232       -0.92271913137039
C           -7.29833132339386       -3.04136352090840        1.36407433106644
H           -7.33144720949256       -2.96919498099780       -1.42694359508991
H           -8.82087447527622       -3.62435537924986       -0.72595650593192
H           -8.84397566293481       -2.06025521416256       -1.56554844965703
O           -6.09884700515448       -2.66049106164237        1.78991254715055
O           -7.81148071873823       -4.08055963560474        1.67263717234539
