42
 energy: -62.486133514228 gnorm: 0.000480258065 xtb: 6.7.1 (edcfbbe)
N           -1.46481855496523       -1.67094499384673        0.25845511823598
H           -0.90537154957789       -0.95448003962890        0.71010434368051
H           -0.83024322593973       -2.33903639648755       -0.16250528927381
H           -3.10087473752128       -1.68796335511463        1.32989349470346
C           -2.33811050452464       -1.08111234541551       -0.75674089347514
H           -1.86094580918578       -0.29092917679127       -1.35203591085806
C           -2.85745111543259       -2.17037273472325       -1.69639491761305
C           -3.53143926917103       -0.48485609879149       -0.03957911201988
H           -3.32304027577790       -2.96820585124298       -1.12109761310105
H           -3.59815001163918       -1.74256503935512       -2.36534182686632
H           -2.04102965406926       -2.58824574493754       -2.28190369011789
O           -3.82100891918710       -1.05017833388275        1.14960654304558
N           -4.19088403611077        0.43580913053561       -0.58271096014725
H           -7.04162946078961        0.52227261398544        1.80166882907724
C           -5.37532600496150        0.93967324078503        0.07565543945888
H           -5.14882430760864        1.18387212339198        1.12585363989476
C           -5.82240032529211        2.19269585490918       -0.69461707318959
C           -6.47056188666486       -0.09976473293989        0.04368752582029
H           -4.97700380011665        2.88203610150045       -0.71977140580819
H           -6.01753852106517        1.86820732292009       -1.71712320237378
C           -7.05531683775631        2.90739011037117       -0.13326393442393
O           -7.33387984231109       -0.10070189822933        1.12559136333944
H           -7.86597818542600        2.18212378988022       -0.00129467606886
C           -6.76217029159606        3.58042360292375        1.20758974538026
C           -7.53235621561114        3.95492805958083       -1.13783136047554
H           -5.98139366479175        4.32841798647024        1.08670521206939
H           -7.65415386744432        4.07608131827552        1.58445068404500
H           -6.43092045535686        2.86833094410078        1.96111644997235
H           -7.78791791735139        3.48602866936686       -2.08446338765505
H           -8.41315901049806        4.47052680533033       -0.76215857423409
H           -6.75211590524659        4.69134972186313       -1.31716478083859
N           -6.56316273453908       -0.87076131704533       -0.93365240554636
H           -8.84729932638841       -0.39242638069253        0.17992789499590
C           -7.52378253634125       -1.92445458310346       -1.12908027996807
H           -7.17982620797300       -2.46674106921224       -2.01770739870191
C           -7.63453588795789       -2.90520890705363        0.04670135969609
C           -8.92620028553200       -1.39109286128068       -1.45944690401516
H           -8.04759802572139       -2.42437325426201        0.93077469520489
H           -8.27457892108284       -3.73773049168832       -0.23474336967530
H           -6.64499037414650       -3.28448455518425        0.29204086527608
O           -9.45249500338785       -0.55009610771413       -0.56921734561804
O           -9.52570778267914       -1.72546730582646       -2.44104181001970
