42
 energy: -62.486133504624 gnorm: 0.000480020280 xtb: 6.7.1 (edcfbbe)
N           -2.08117880771022       -1.87171580071331       -0.61869272409153
H           -1.92581425445518       -1.65370465711647       -1.59720139635883
H           -2.05441120310892       -2.87896382263681       -0.51304009173667
H           -1.35426937593962       -0.41492329761521        0.30668475358488
C           -3.35916479205265       -1.33006721396367       -0.15374630951864
H           -4.15611816618302       -1.44540048313363       -0.89738696753049
C           -3.76985520573698       -2.03087922297655        1.14244070528266
C           -3.12902128861490        0.15206617764868        0.19117983613305
H           -2.98859723202521       -1.91231854111768        1.89025126105758
H           -4.69024821330583       -1.59586114371076        1.52240210867157
H           -3.92853765578701       -3.09335764010203        0.96594712784293
O           -1.85048412295851        0.41464883281590        0.48204129612401
N           -3.95074534668693        1.08902952731019        0.34548711442715
H           -5.35392103301484        0.42804804142774       -2.25918128545274
C           -5.34394750090501        1.21595498420426        0.04994390390095
H           -5.81995694850424        1.42662070072472        1.01598353426096
C           -5.50036455069553        2.45963073132519       -0.84812648676191
C           -6.08316705812195        0.02941444626530       -0.53214248209938
H           -5.05633835150731        3.29504148302136       -0.30639316109027
H           -4.90407327573088        2.32839390228279       -1.75770530168077
C           -6.94834727348684        2.79715155356971       -1.22427101766473
O           -5.89687112966689       -0.25526851320428       -1.84445368301152
H           -7.39441974956374        1.95024972888205       -1.75918988769464
C           -7.80051428328454        3.08175741769441        0.00999234259432
C           -6.95401745921522        4.00779432426045       -2.15705772360236
H           -7.33705191104030        3.85225062420187        0.62172694635606
H           -8.78612897835905        3.42879915393032       -0.29087427048559
H           -7.93061904791872        2.18657348328679        0.61224587672877
H           -6.36232634274659        3.81679349029856       -3.05006261798834
H           -7.96918936905867        4.24417779329324       -2.46582081543615
H           -6.53839931952599        4.87542234951631       -1.64988591938298
N           -6.86561145349835       -0.62702220475768        0.20521657136080
H           -7.99059125239938       -0.60283726719598        1.66510456741915
C           -7.68270665296441       -1.70333771490042       -0.30851371175248
H           -7.97297207020297       -1.53556673557998       -1.35355233168019
C           -6.98387943125867       -3.06255263925799       -0.20149083063839
C           -8.95129207848823       -1.76204921941455        0.55697124078323
H           -6.67047881487266       -3.24253394088224        0.82451348569152
H           -7.67864854812595       -3.84169851711780       -0.50253496611876
H           -6.11329279086851       -3.08879501633268       -0.85213272978764
O           -8.86364716265197       -1.05522753496888        1.67795869456426
O           -9.91497119059735       -2.40776404536993        0.25629774104846
