42
 energy: -62.486133505503 gnorm: 0.000481265816 xtb: 6.7.1 (edcfbbe)
N           -1.56769718049501       -0.05255391229260        0.98652784202431
H           -0.69619828078406       -0.55806334314939        0.87943444665575
H           -1.77936323157578       -0.02147562745461        1.98031024971951
H           -2.44312301706703        1.56010025838569        0.33577798255306
C           -2.65188575489629       -0.73478634404564        0.27720069487787
H           -2.29175516450447       -0.93146929745050       -0.74194480949979
C           -3.11052411710013       -2.04510163197965        0.90935018059266
C           -3.79195254693550        0.26349003045863        0.14774494432802
H           -3.51493060596179       -1.86452972013908        1.90196563215041
H           -3.88983218377795       -2.48960372579749        0.30149344229347
H           -2.27581276673877       -2.73922581012458        0.98579326045498
O           -3.40040959816054        1.55451926201158        0.13689421625108
N           -4.97335533028353       -0.14938946969628        0.06316344774821
H           -8.41438605050258        1.33582233385252       -0.67970154992595
C           -6.10282814290255        0.72762273848260       -0.12030265150886
H           -6.17119942953204        1.42251783891688        0.73242913222201
C           -6.04532033303515        1.55017914099090       -1.43092182508833
C           -7.33683712181702       -0.15266631894762       -0.10115633082839
H           -5.00772346132088        1.59080674920421       -1.76273235572179
H           -6.60592541839651        1.01621945027884       -2.20338864264657
C           -6.56405903962999        2.99172164470847       -1.30331956177179
O           -8.52338587540956        0.40998638549589       -0.42879328004968
H           -7.46919677872926        3.01513883665297       -0.67988263243531
C           -5.52124117593148        3.88698410957971       -0.63873356880844
C           -6.92522260030256        3.53992755417665       -2.68304922325765
H           -4.64022749516540        3.96766068140955       -1.27051897938917
H           -5.92294014941725        4.88447018849869       -0.47487800861482
H           -5.20904662059284        3.47751547940111        0.31793388877607
H           -7.71073829117443        2.94705051709775       -3.14790849276217
H           -7.27356891350884        4.56719239865904       -2.60462301291291
H           -6.05367977125965        3.52301642580329       -3.33335918476630
N           -7.21894209343891       -1.35552080854405        0.23269918954381
H           -6.16181165162110       -2.56797970484364        0.94841864941459
C           -8.30781937672604       -2.29367761701323        0.31081688352594
H           -9.16158463987887       -1.88735801486559        0.86866520115826
C           -8.79067111949155       -2.74371776942084       -1.07166939660900
C           -7.75959598203991       -3.51884550173730        1.06706605185840
H           -7.94577298924892       -3.09206488146046       -1.66215989013291
H           -9.50279785384087       -3.55576535392242       -0.95447389751548
H           -9.26796454119839       -1.91472077505176       -1.58799439676194
O           -6.45845610291413       -3.44687125503307        1.30509543012843
O           -8.44640845398824       -4.44858062772889        1.39166539777110
