42
 energy: -62.486133013218 gnorm: 0.000643291857 xtb: 6.7.1 (edcfbbe)
N           -1.00854674055571       -1.57970681306945        0.27414580842544
H           -0.92309250865645       -1.57706582897451        1.28521422446561
H           -0.07469094446549       -1.58195938095326       -0.11857603084666
H           -2.59716547180436       -2.52272581744176       -0.05324480097622
C           -1.76631050008812       -0.41745803240084       -0.18789452361984
H           -1.55807499017037        0.50117668880985        0.37615058953150
C           -1.48605943726911       -0.16816887992764       -1.66979577664778
C           -3.24754952024939       -0.75015552625906       -0.03091160374961
H           -1.69727792850449       -1.06519220583178       -2.24821500636287
H           -2.11727524952159        0.63976130958700       -2.02707071027699
H           -0.44386316520450        0.10682357186474       -1.81799051469565
O           -3.48199201129855       -2.09323489467068       -0.05160258978837
N           -4.05403907030559        0.19139068583130        0.06101582680027
H           -5.12079592480143       -2.12434980252134        0.27945294517064
C           -5.47088442331166        0.39860701656539        0.14638655155382
H           -5.61206648429968        0.93570933318619        1.09377406681832
C           -5.71679934605852        1.39936597985216       -1.01325812605769
C           -6.47688655439116       -0.74856415448766        0.15715990476611
H           -4.90078987645114        2.12202791099068       -0.94298274575968
H           -5.59186379707886        0.85235294429852       -1.95055976032257
C           -7.04111386750034        2.16422726142144       -1.06442029795821
O           -6.08657011669665       -2.01293632798204        0.34845302247645
H           -7.82990304177473        1.47347813936972       -1.36505176119988
C           -7.40395111782044        2.78985777839277        0.27856003494871
C           -6.93687611616398        3.25111997244284       -2.13489857887510
H           -6.60517031480119        3.44524258814374        0.62020039684897
H           -8.31207215079823        3.38003445181863        0.18172150204180
H           -7.57343185458854        2.02414851426639        1.03073937466676
H           -6.65932079571192        2.82181310005778       -3.09469121418018
H           -7.89203844368619        3.75679125455571       -2.25119593306316
H           -6.18769687004422        3.99078965924497       -1.85953318903408
N           -7.70161467799208       -0.45491741425144        0.02643165704937
H           -9.17047721373281        0.72329835096458       -0.08355322592762
C           -8.70605079392664       -1.49733785911023        0.07500153528995
H           -8.43398841300887       -2.35702987750158       -0.54966761381850
C           -8.95048431214508       -1.98759054830846        1.50961093912549
C          -10.02469776060615       -0.90241889912003       -0.42639528374553
H           -9.20348870554420       -1.14599358837644        2.15247675168619
H           -9.77252476170521       -2.69794891990506        1.51319596328019
H           -8.05537289173743       -2.47070258095597        1.89232956419118
O          -10.06394417058983        0.42484052767214       -0.36175123646931
O          -10.94937892282459       -1.56942532583863       -0.79982524668400
