42
 energy: -62.486133510190 gnorm: 0.000480207657 xtb: 6.7.1 (edcfbbe)
N           -0.88366344911630       -0.49380635025269       -0.21298641208886
H           -0.07489948762169       -0.76850731649897       -0.75745192394113
H           -0.86176278321714       -1.02517984124393        0.65338430870529
H           -1.82577993034877        1.10326717852173        0.36569558844224
C           -2.12168117350746       -0.78426262041186       -0.93751640646491
H           -1.99936371175855       -0.39637727294941       -1.95703793702379
C           -2.50021413074567       -2.26114691512211       -1.00431066681564
C           -3.22652207319994        0.03863588839006       -0.29479799948796
H           -2.55853394689131       -2.67776192442951       -0.00067421603772
H           -3.47610330050245       -2.35334853744849       -1.46843868267141
H           -1.76462128823568       -2.82048240010847       -1.57871064650017
O           -2.80295227786116        1.13377905972031        0.37258457112014
N           -4.42295469075437       -0.31626915390033       -0.42531127035071
H           -6.99715888496121        0.28254828292455        2.02422620037436
C           -5.49564293628135        0.47672015410236        0.11898568482942
H           -5.22868022705380        0.86401430688725        1.11625123427901
C           -5.79045049645842        1.65659015669756       -0.82827711748374
C           -6.72328047867873       -0.39589752586776        0.21263720564610
H           -4.88564004740410        2.26293970289699       -0.90187825296319
H           -5.99653064731649        1.21894910181777       -1.80614320061326
C           -6.96732964464236        2.54056358180380       -0.40415107752869
O           -7.43522075331216       -0.31041038329240        1.40180948704139
H           -7.83860706029444        1.90662487764171       -0.20516807795392
C           -6.64586980334769        3.35659141969031        0.84703532501132
C           -7.32786592952847        3.48100958393303       -1.55272043639659
H           -5.79436572759969        4.00771971036656        0.66075760935180
H           -7.49725399957661        3.97517637918801        1.12197978952967
H           -6.40465403819916        2.72217225893921        1.69731170808526
H           -7.61128006786632        2.91304975822066       -2.43506300615516
H           -8.16266730960339        4.11966039242811       -1.27405265199173
H           -6.47941458311046        4.11338196839696       -1.80577092825802
N           -7.04812538492005       -1.11377907858859       -0.75340877742433
H           -9.08120192462646       -0.35632387413962        0.65680597630940
C           -8.17197194235772       -2.00716600449772       -0.84673989929648
H           -8.02594637595568       -2.55980493959756       -1.78204094095877
C           -8.28820653179886       -3.00620073383449        0.31279651389856
C           -9.50538622629196       -1.25657346099409       -0.98724831837639
H           -8.48260411179673       -2.50191947100994        1.25686646250477
H           -9.09761243892297       -3.70355828906018        0.11112434039669
H           -7.35646822145188       -3.55997841882305        0.40184433749645
O           -9.78690642884296       -0.38621234712226       -0.01696623355660
O          -10.26079679196760       -1.45045255717991       -1.89629611227660
