42
 energy: -62.486133510592 gnorm: 0.000480028265 xtb: 6.7.1 (edcfbbe)
N           -0.88518532479811       -0.04003321963745       -1.23325455025789
H           -0.14780852298630       -0.54421511526896       -1.71005761498445
H           -0.50388342372859        0.30884889866332       -0.35814706130869
H           -2.19808363117066        1.28149177377425       -1.61070742452562
C           -2.03034668208808       -0.90796308011326       -0.96684095063253
H           -2.24423523203311       -1.45615975285876       -1.89377402734654
C           -1.81167223568797       -1.90612397524129        0.16880961944538
C           -3.23392082908630        0.00226922167338       -0.71653272830729
H           -1.67281233817042       -1.37972554215137        1.11073759996098
H           -2.67066617467417       -2.56148488177293        0.26402018691216
H           -0.92992076742382       -2.51220571726052       -0.03139570925084
O           -3.09976681649565        1.23234948040858       -1.22905876182008
N           -4.21000089626842       -0.46683354711355       -0.08162863498632
H           -5.12200251374711       -2.12563517127851        0.24894288857491
C           -5.48750138057786        0.14859614632549        0.20925588576733
H           -5.51334849274580        0.24710633544235        1.30580666530926
C           -5.82796414014624        1.50060242289484       -0.42291918026406
C           -6.50226227022975       -0.93153196194129       -0.14175142197768
H           -4.94452224836442        2.13713349323971       -0.40004830592441
H           -6.09367472948637        1.33210917707790       -1.46755304920633
C           -6.97258026669190        2.22790787069493        0.29581416661009
O           -6.07872966857526       -2.18841376632431        0.06218838034247
H           -7.75300106476550        1.50143081010174        0.53743023549804
C           -6.48622793200483        2.87400996997219        1.59217043254061
C           -7.56204844994328        3.29769987706625       -0.62147656650284
H           -5.72652810866388        3.62394072865816        1.38000451752816
H           -7.31275647618245        3.36094340468159        2.10452977625741
H           -6.05970682309654        2.13738215130955        2.26921195122383
H           -7.96110860341850        2.85612368465697       -1.53117956314738
H           -8.36780077682814        3.82761475399854       -0.11902365333840
H           -6.79696660548742        4.02072588662666       -0.89727931689371
N           -7.63673154317277       -0.62801525874233       -0.59409893745342
H           -8.68067439455492        0.56947887318724       -1.46598555194479
C           -8.61119201281735       -1.63560185885689       -0.94470207039238
H           -8.14835630857885       -2.50855216912074       -1.42284171319014
C           -9.39767865868995       -2.10438230783084        0.28417751203488
C           -9.59321540993211       -0.98854651262290       -1.93270756348689
H           -9.83155763805429       -1.24800332018645        0.79673676162546
H          -10.19468524028184       -2.77113462218928       -0.03256387637223
H           -8.73562010995772       -2.62962862964221        0.96815026846238
O           -9.44283035418059        0.32571225229040       -2.04351792543145
O          -10.42661616652459       -1.61131264672678       -2.53000566049863
