42
 energy: -62.486133508030 gnorm: 0.000480174633 xtb: 6.7.1 (edcfbbe)
N           -1.83051111937937       -2.21329715772942        0.09154200366112
H           -1.66713175321921       -2.21444443450065        1.09317238827898
H           -0.97656004581636       -2.51298149330304       -0.36416484005104
H           -3.74274546257446       -2.54671479076273       -0.04308594314401
C           -2.22047063836395       -0.88117503838422       -0.36667938940438
H           -1.63399436771629       -0.06557696139583        0.07812669960563
C           -2.10691154768172       -0.80875362974009       -1.88980482660775
C           -3.68499529440576       -0.67887659455080       -0.00029909217780
H           -2.70065809765491       -1.59772892076872       -2.34609286729028
H           -2.47350758150364        0.15279877559881       -2.23545554626382
H           -1.07029856174973       -0.92530060855955       -2.19976993263463
O           -4.38469830811601       -1.82035248162015        0.09680015962274
N           -4.07748387941274        0.49540793290730        0.19860027318811
H           -6.70076764454798        0.40497401947115        2.38814891871268
C           -5.42576945153830        0.96402856138974        0.37790342644992
H           -5.39852311609137        1.57648190281483        1.29174268190757
C           -5.74685344405091        1.87540066340037       -0.82113941554869
C           -6.51121037321433       -0.08093560249340        0.50591527593878
H           -4.90589525945823        2.55575890063267       -0.96086564211276
H           -5.81998428977919        1.22722338361742       -1.69468897938483
C           -7.04726480722842        2.67062475852755       -0.66452737515544
O           -7.12529231875145       -0.17523859410127        1.74503999086780
H           -7.84053014548235        1.98948994805929       -0.33656512539529
C           -6.90638519545055        3.79606230556294        0.35871079094870
C           -7.45382373803148        3.25006648034312       -2.01779871121243
H           -6.12618490172184        4.48891203031088        0.05064432221278
H           -7.84045707479537        4.34685794617773        0.44230847166093
H           -6.65369610040000        3.41530909752784        1.34557600320331
H           -7.61801930019807        2.45331920827436       -2.73854055152538
H           -8.37355341937324        3.82284216336873       -1.92592631076916
H           -6.67472759452461        3.90730646752818       -2.39827106365676
N           -6.79571320416550       -0.79474062621248       -0.47862581855725
H           -8.80458414205531       -0.42028263736845        1.08767228837492
C           -7.76638035470019       -1.85441311943067       -0.54073679997852
H           -7.59711147209626       -2.34444819001017       -1.50647124804146
C           -7.64561145870677       -2.89675354612006        0.57906192065705
C           -9.20298674751365       -1.31422564889562       -0.56558524290084
H           -7.91895540000946       -2.47994419268110        1.54605478042663
H           -8.29574046348661       -3.74035842292053        0.36110725228352
H           -6.61496700163993       -3.23919512845334        0.62963432768699
O           -9.54297999916849       -0.53093339464091        0.45950224561836
O           -9.98225623106672       -1.58821877777647       -1.43323439405640
