42
 energy: -62.486132262915 gnorm: 0.000628796427 xtb: 6.7.1 (edcfbbe)
N           -1.52300076082548       -0.85110359581099        0.03191169105073
H           -0.91409986448988       -1.65550922708932       -0.05093635940980
H           -1.18826790886835       -0.29227292911934        0.81198824489953
H           -2.25939704111653        0.47481778000468       -1.04829817607131
C           -2.90726221440137       -1.26139704407414        0.27502936239835
H           -3.12137262421993       -2.11276359450373       -0.38157493867283
C           -3.19840128555975       -1.65664765062199        1.72007974878721
C           -3.81441181296381       -0.11958625840824       -0.18982716381056
H           -2.96969536824512       -0.82784106534206        2.38759982303642
H           -4.24849303730013       -1.90440959600042        1.82551332550945
H           -2.59677007739682       -2.51708809367163        2.00582881894825
O           -3.19318429684983        0.77359834063436       -0.98911013771689
N           -5.00839937226884       -0.13883334840966        0.18099384729283
H           -8.18775100779527        1.31663532915340       -1.29260596032809
C           -6.08790244756498        0.76219170649717       -0.11091546986382
H           -6.29889669636502        1.26788046502113        0.84462328386697
C           -5.89916451135636        1.83340533180355       -1.20637208598764
C           -7.29693336795059       -0.12511857350494       -0.38063492265342
H           -4.83432342505333        2.02083495334271       -1.32609592102300
H           -6.25505471079649        1.44056657421803       -2.16406733551350
C           -6.58198663733706        3.17376675734363       -0.88423187591755
O           -8.35524107258313        0.40174056183491       -1.03267068249274
H           -7.57104258174060        3.00291497135499       -0.43657807298869
C           -5.75130858015965        3.96667020387239        0.12328364064107
C           -6.76733795417898        3.98876221278129       -2.16345555072031
H           -4.78305207474337        4.21741373229119       -0.30406846654503
H           -6.25862628087363        4.89024418506930        0.39325935654737
H           -5.58409948329596        3.39193839857000        1.03136847943225
H           -7.40040002730436        3.46539474478871       -2.87797002357328
H           -7.22794767499517        4.94850203604324       -1.94066472395230
H           -5.80355004753241        4.17241921081373       -2.63281717658241
N           -7.27755159893011       -1.30432262483364        0.04882293068585
H           -6.40387566670319       -2.49991420969838        0.98590798066617
C           -8.35406341684894       -2.24878344700447       -0.10311787243110
H           -9.30967680772425       -1.83632915615085        0.24528539919399
C           -8.52081955269318       -2.72962948478049       -1.54822509901160
C           -7.98406147755306       -3.45743056164908        0.77779743172314
H           -7.56667537650049       -3.08695198668705       -1.93047909908721
H           -9.24120426714308       -3.54244520194579       -1.57287129801039
H           -8.87235702727604       -1.91444361153053       -2.17528155905144
O           -6.76425676223959       -3.37489054406268        1.28934761318386
O           -8.72427509370048       -4.38401155662414        0.96316427514659
