42
 energy: -62.486133507794 gnorm: 0.000480350653 xtb: 6.7.1 (edcfbbe)
N           -2.05307643817111       -0.74424374119050       -1.67228611820791
H           -2.05432609639321        0.17719770537433       -2.09804714615077
H           -1.94155602860122       -1.42724202323407       -2.41322407239243
H           -1.39848848153992       -0.49372129483302        0.11532597907790
C           -3.30861234939495       -0.97837211227013       -0.94893045911285
H           -4.20289918266134       -0.69498796250466       -1.51337215005108
C           -3.38785396530700       -2.45823491483826       -0.57298234782972
C           -3.22171419360253       -0.15950421780104        0.34058358833014
H           -2.51107599047624       -2.74580052388785        0.00379795011527
H           -4.27815966664423       -2.63606937782823        0.02051037804668
H           -3.43433983535280       -3.07240736931396       -1.46989447464085
O           -1.96814608005457       -0.11343395076308        0.81653715439540
N           -4.07824035977797        0.47949274951199        0.99971198274692
H           -7.76145761806049        0.49083487687215        1.52890796015932
C           -5.47320819243546        0.73316033570895        0.88201351989150
H           -5.79337393915808        0.93331375404089        1.91609998931686
C           -5.59912620724071        2.04249310475273        0.05190703443792
C           -6.44501679786635       -0.27326882840310        0.30211682531519
H           -4.82812380611792        2.72024888411020        0.42342576145472
H           -5.34939928568326        1.78606770249322       -0.98013547699196
C           -6.95232551015859        2.76082595206100        0.07977334057998
O           -7.71928118864760       -0.18309072282513        0.83881625977984
H           -7.74928947238313        2.06454981828673       -0.20306269562796
C           -7.25670422469321        3.35097461395877        1.45630490707430
C           -6.93837428293006        3.87970949359771       -0.96197495930386
H           -6.50509300260607        4.09277749958116        1.71638756245686
H           -8.22957033963886        3.83751840669855        1.45049443453743
H           -7.26284163497134        2.59618704790174        2.24055882393355
H           -6.78512351109808        3.47367579302755       -1.95886377709416
H           -7.88377063329240        4.41672099422014       -0.95440908184906
H           -6.13903569619263        4.58626147801643       -0.75003119611202
N           -6.13030543383545       -1.11132651958979       -0.56801059889877
H           -8.65807491324404       -0.43854768891869       -0.69478986840553
C           -6.98254610379584       -2.09872495618288       -1.18405903392652
H           -6.30983074961349       -2.72387711346921       -1.78283125869856
C           -7.75163880400154       -2.99183875238987       -0.20310830423145
C           -7.96746253808113       -1.45343540298635       -2.17161569711539
H           -8.47594599017745       -2.42515098115010        0.37747837339605
H           -8.27322879031288       -3.76805871206664       -0.75759020184137
H           -7.05099301365520       -3.46077267490892        0.48452474025469
O           -8.80938707325986       -0.56200409116227       -1.65144105373644
O           -7.98710259596576       -1.73810040881523       -3.33490668725380
