42
 energy: -62.486133516278 gnorm: 0.000479312740 xtb: 6.7.1 (edcfbbe)
N           -0.81814074405942       -0.72015840267755       -0.13380030679587
H            0.02661572235472       -0.83445569839944       -0.68081854525416
H           -0.90819480762605       -1.54005550612516        0.46052104752319
H           -1.71137210763612        0.63809059698018        0.91912784607935
C           -1.99093768940378       -0.60824836796334       -1.00194114034497
H           -1.74538051149484        0.11938082671600       -1.78644227489269
C           -2.43950403646139       -1.91455156730383       -1.65114094712031
C           -3.10439129940476        0.01327131502585       -0.17283007163929
H           -2.64574533616201       -2.66199972054920       -0.88766195944969
H           -3.35165130249388       -1.74044802790162       -2.21143099411615
H           -1.66867975109068       -2.29335750945080       -2.31907551588446
O           -2.68342698367986        0.73987313295258        0.88290478344792
N           -4.30259668311461       -0.16766612988163       -0.50302941771571
H           -5.56558949591984       -1.12128061803911        2.01894702119109
C           -5.38802240613352        0.47108518877365        0.21377690548250
H           -5.06505409613797        0.82824940799785        1.20485704554542
C           -5.88668865835845        1.65320708952357       -0.62679059087461
C           -6.43665613566201       -0.60362311744808        0.38430728690799
H           -5.06595757844520        2.36946467985013       -0.70899742006721
H           -6.10448536763587        1.27184143623960       -1.62449578988407
C           -7.12480751458724        2.35829988282695       -0.06596932559263
O           -6.33910663784275       -1.36783025243259        1.49665783554116
H           -7.91493183246188        1.61440923461172        0.07185040865118
C           -6.83985974643360        3.02817965093142        1.27672155071519
C           -7.60947305549524        3.39766749759967       -1.07530515289245
H           -5.99819702638594        3.71246586858569        1.18995726372146
H           -7.70828379141723        3.59459809135620        1.60542343478424
H           -6.61074861074770        2.29422812861401        2.04526897189076
H           -7.84076531353592        2.92872133257511       -2.02834557287327
H           -8.50609036891015        3.89361174337903       -0.71131788412065
H           -6.84354076574621        4.15279748580553       -1.23965597100511
N           -7.30616473922190       -0.79588034744822       -0.50159063964719
H           -7.80097572777365       -0.58222200043779       -2.21861730660620
C           -8.28444591913869       -1.85327248678344       -0.41016420613262
H           -7.84578460775200       -2.79013898194005       -0.04380113643801
C           -9.45089643128455       -1.46295148273725        0.50426916089707
C           -8.83217703808670       -2.08292958312589       -1.82804918022538
H           -9.87780805631535       -0.51629754706064        0.17871604543369
H          -10.21630608553065       -2.23229291949750        0.45614388662094
H           -9.10238791389541       -1.36227707729214        1.52918890191588
O           -8.41961432728918       -1.17795480021485       -2.70574139872352
O           -9.57796647472182       -2.98157626409726       -2.10269153543920
