42
 energy: -62.486133510172 gnorm: 0.000480434564 xtb: 6.7.1 (edcfbbe)
N           -0.87031810849986       -0.44246211182608       -0.15908329148399
H           -0.09626202481234       -1.02094663579629       -0.46265981991046
H           -0.77821087709618       -0.31258607659234        0.84495304565060
H           -1.78664287789028        1.17611246329542       -0.63496283046268
C           -2.14998528100413       -1.08469561153110       -0.45643597394172
H           -2.11078319678265       -1.40832745814314       -1.50548181209079
C           -2.48647707222210       -2.28265938770963        0.42702245088381
C           -3.22395153139374       -0.00321073036055       -0.37258199843030
H           -2.49542633392698       -1.98413440754319        1.47298374713935
H           -3.47314070503245       -2.65373287221570        0.17261820831069
H           -1.75376151010656       -3.07526540524553        0.28904053754229
O           -2.76116412058491        1.24545857594023       -0.57148916784075
N           -4.40668417908861       -0.35049155557772       -0.14326762684287
H           -5.78271869999619       -0.35154762592559       -2.29380928889005
C           -5.56918604007801        0.50280410826010       -0.06210065717886
H           -5.77445982028373        0.65352131811619        1.00297767883240
C           -5.49939595873274        1.86260022194500       -0.77819857197608
C           -6.70222833705531       -0.33042150448215       -0.62486376705565
H           -4.77734212949187        2.49383195393785       -0.25979046555828
H           -5.12432152879905        1.71452796071328       -1.79593086054803
C           -6.85022739571413        2.58560452402624       -0.84578005634501
O           -6.61267181038424       -0.67697726045389       -1.92355700744828
H           -7.56894154145677        1.95096611883411       -1.37698473642794
C           -7.40568282629359        2.87759646734709        0.54566161539877
C           -6.68543514113669        3.88635059423094       -1.63054242962977
H           -6.67545173997388        3.42370564206268        1.13928623819042
H           -8.30559595886976        3.48303166247980        0.46815894147591
H           -7.66359098710360        1.95729275986098        1.06233148500253
H           -6.30583981803272        3.69164442377056       -2.63140316915553
H           -7.64001199571914        4.39871047027859       -1.72169884797194
H           -5.98753949324373        4.54802056560554       -1.12187939853719
N           -7.64320181034351       -0.69484549328212        0.12698077446674
H           -8.58848218219054       -0.52092329370605        1.66813778562581
C           -8.73668336838464       -1.50679470525621       -0.36117465984033
H           -9.07887316611976       -1.18327414135141       -1.35199968742629
C           -8.34553027274195       -2.98717005963011       -0.43028394179655
C           -9.89322558597168       -1.36012582916658        0.63803556303536
H           -7.96624138584779       -3.31525127866349        0.53531525807375
H           -9.21888489715179       -3.57811894510521       -0.69140781860161
H           -7.57247600485026       -3.12965745241527       -1.18096682842839
O           -9.53665202747193       -0.76903594381962        1.77262578764196
O          -11.00249151155359       -1.76114986706079        0.42114062442724
