42
 energy: -62.486133525858 gnorm: 0.000478672261 xtb: 6.7.1 (edcfbbe)
N           -1.00700991095121       -1.51028245470230        0.30843142404763
H           -0.87973078138488       -1.37502419742697        1.30610482935552
H           -0.08989448304865       -1.55543593148712       -0.11970513561583
H           -2.61379387442894       -2.49839655636600        0.15168499855331
C           -1.79740354801933       -0.42289609617228       -0.26779937480753
H           -1.56796196560694        0.56571533359011        0.15083108781519
C           -1.59864787383402       -0.38492885584585       -1.78329215075165
C           -3.26316196386542       -0.73381338923622        0.00975781460237
H           -1.82837779512344       -1.35634157731414       -2.21634252417020
H           -2.25763945562935        0.36027335119381       -2.21836997756195
H           -0.56905728012171       -0.12891424114271       -2.02423831985618
O           -3.49663806886911       -2.06729099471361        0.15815439665453
N           -4.06977585309455        0.21313365477339        0.06883277511739
H           -5.13725869557144       -2.13550994917248        0.70803991588413
C           -5.49209961473382        0.33858349514372        0.22180747374854
H           -5.62585409591144        0.65328736344681        1.27058285862930
C           -5.92175102378045        1.51141190580020       -0.68011046465049
C           -6.42558090992747       -0.85641052828699        0.06660608720446
H           -5.04352444189647        2.14189506989269       -0.82597312347911
H           -6.21310939405812        1.10768422491575       -1.64983060929868
C           -7.06084325293258        2.36299542095596       -0.10674856343523
O           -6.09985813801581       -2.04411979418936        0.59272018514445
H           -7.82581865453462        1.69461852870519        0.29830156005411
C           -6.55853239642837        3.27206152971630        1.01339443204163
C           -7.68395567791450        3.21089115502744       -1.21434856723135
H           -5.82455490485874        3.97637517159525        0.62730120313792
H           -7.38370673586183        3.83732214920435        1.44037916772261
H           -6.09296728570999        2.70014386998455        1.81235473524161
H           -8.09924260113306        2.58663134823418       -2.00132082702354
H           -8.48393781512689        3.82899507897128       -0.81397493707735
H           -6.93429891415600        3.86571171806303       -1.65397381689348
N           -7.55719691357718       -0.64258208287315       -0.45281160341772
H           -8.60241300484909        0.35052507595191       -1.53701021392219
C           -8.54521425092814       -1.68930444134711       -0.57248274629745
H           -8.09574447703568       -2.65251832623999       -0.84690414714110
C           -9.33544543294863       -1.86878789245632        0.72868082237711
C           -9.52283770988433       -1.26154454171450       -1.67646091752822
H           -9.75908737870687       -0.91622612872343        1.04122521612095
H          -10.14023360920440       -2.57980948386509        0.56462235843804
H           -8.67806018548158       -2.23947661113916        1.51118951237128
O           -9.36766626128119        0.00174005749183       -2.05503129396102
O          -10.35630462679873       -1.99240755984961       -2.13533821596677
