42
 energy: -62.486133511567 gnorm: 0.000480351658 xtb: 6.7.1 (edcfbbe)
N           -2.26368993133241       -0.96877888396225        1.77825823736808
H           -1.30219124207258       -1.28708440334020        1.75527213864959
H           -2.80855150983500       -1.68483696126219        2.25235231126664
H           -3.32501291719443        0.57287711811162        2.20123412000040
C           -2.78250121761792       -0.78125318821041        0.42319981136349
H           -2.04681898381849       -0.17683487681833       -0.12462236362277
C           -3.04685072023907       -2.07416454324626       -0.34463719265532
C           -4.03748379859292        0.07009965709207        0.54317902187304
H           -3.66603100164787       -2.74449235468061        0.24731259366089
H           -3.57242568399317       -1.84208059968922       -1.26434854509887
H           -2.10969402411732       -2.57542568709109       -0.57800523269420
O           -4.09567238909317        0.82870399468814        1.65478522308510
N           -4.90530861546052        0.03770095921376       -0.36467601098705
H           -8.43374945539963        1.39361408474417       -0.73997382589329
C           -6.09094175278783        0.85557919361964       -0.29244190413888
H           -6.12100197440657        1.44540648860390        0.63849762954294
C           -6.13164500244607        1.80191062849016       -1.51203122205601
C           -7.28739883513329       -0.06944000481218       -0.25327880853402
H           -5.15458709800812        1.75370299326772       -1.99577420512528
H           -6.85796343915290        1.43409936093602       -2.24191565310458
C           -6.43819745266675        3.26187700108028       -1.15236243960315
O           -8.50282371776060        0.45527756729108       -0.52207778256403
H           -7.29216870209561        3.29846851408891       -0.46195633293648
C           -5.23899866549857        3.90751848758557       -0.46170682523605
C           -6.80642275424480        4.04506208541708       -2.41128293060846
H           -4.39519558708214        3.95536381910678       -1.14658591826873
H           -5.48106775737423        4.91858940708554       -0.14255012846394
H           -4.93563003924921        3.33602010298551        0.41201537573803
H           -7.69310991318678        3.62986731796557       -2.88654643657718
H           -7.00606492413133        5.08557851785901       -2.16668840433259
H           -5.98821724255011        4.01231869464751       -3.12697045136967
N           -7.10457494677486       -1.26287963398498        0.09041414307636
H           -5.94601722997493       -2.45194495686337        0.61425927151323
C           -8.13933024577268       -2.25546826844114        0.22388635521396
H           -8.96351200139514       -1.90407881088699        0.85757620092489
C           -8.70579408246125       -2.69740606843182       -1.12907439189511
C           -7.47257279514292       -3.46756681025996        0.90085512911339
H           -7.89367274843693       -2.99436042560993       -1.78960537716094
H           -9.37225873904621       -3.54227449890569       -0.97991654506340
H           -9.25484991195452       -1.87875561252275       -1.58711644764248
O           -6.15396060496556       -3.34634540321183        0.99588520033473
O           -8.08223164902201       -4.42618997818287        1.28609807564531
