42
 energy: -62.486133519319 gnorm: 0.000478921182 xtb: 6.7.1 (edcfbbe)
N           -1.55124952539010       -1.13573850657091       -0.95416674051163
H           -0.91566910193726       -1.92404709644170       -0.97508636058202
H           -1.02935449968717       -0.33269949088991       -0.61308865359566
H           -2.85049662432434       -0.30447860660418       -2.07319103010003
C           -2.68465727212767       -1.40040713604453       -0.06724079570692
H           -3.05756892108223       -2.40482602879404       -0.30549799766977
C           -2.36516696921519       -1.32201704303577        1.42276364602136
C           -3.79212819259347       -0.42845846799187       -0.45210183606272
H           -1.96311467249022       -0.34075150776963        1.66877601270065
H           -3.27707648156527       -1.46995270896976        1.99189704854757
H           -1.63740365653461       -2.08305055340153        1.69707064524093
O           -3.70059062296679        0.03294737366659       -1.72114408770593
N           -4.70419458694237       -0.18222374959682        0.37312280283302
H           -6.16256335225485        0.36155598224430       -2.27466399964164
C           -5.82197560353319        0.70692527041538        0.11832606174947
H           -6.20966832431295        0.92810122742940        1.11950309672585
C           -5.50924266291720        2.02366816620868       -0.59919396321628
C           -6.86283854111266       -0.15361793011137       -0.56809779039946
H           -4.75473706178950        2.54821499551025       -0.00772529820319
H           -5.06432271873150        1.83649081015699       -1.57965755669148
C           -6.74102560675358        2.92402183547559       -0.76690854641287
O           -6.87233777648004       -0.18776222089219       -1.91487027284449
H           -7.54564343006303        2.34586781505704       -1.23598131553672
C           -7.24886692116209        3.44843323937896        0.57416008367393
C           -6.39152726631374        4.09554271585135       -1.68451838929717
H           -6.45722684507077        3.97978769763242        1.09854889631218
H           -8.07592218453950        4.13671967759163        0.41604735162627
H           -7.60272582240714        2.63863336817757        1.20636960284240
H           -6.06373750877165        3.74432192084064       -2.66093980321327
H           -7.25729141793904        4.73743929403602       -1.82773982084998
H           -5.59237016467911        4.69127154548913       -1.24817910242840
N           -7.58425521914895       -0.90026497133117        0.14413332116580
H           -8.26441038334929       -1.34220514816094        1.76258172271325
C           -8.51519748028298       -1.84441550340216       -0.43122359439736
H           -9.10810026107505       -1.39535500671965       -1.23790823010127
C           -7.79933990281445       -3.08615344395855       -0.97528401106943
C           -9.46313446427720       -2.28719989138552        0.69370262976435
H           -7.15869822658312       -3.50925614185009       -0.20397740520144
H           -8.53872316029889       -3.82467300497575       -1.27214813577615
H           -7.19025662721358       -2.81725300130548       -1.83455305326097
O           -9.07868006011510       -1.88285894698381        1.89745863498450
O          -10.44270114229249       -2.95230263039262        0.49956147301508
