42
 energy: -62.486133513044 gnorm: 0.000480225812 xtb: 6.7.1 (edcfbbe)
N           -1.22010226420660       -1.80063039013315       -0.57244171239429
H           -0.30557880492603       -2.01652035491987       -0.19407235117957
H           -1.08567783026777       -1.46861642655032       -1.52358234350757
H           -2.91606202382756       -2.60134660377329       -0.67383658960357
C           -1.88964997022831       -0.77110367719375        0.22205717450524
H           -1.76088340628837       -1.03772584419065        1.27851875299911
C           -1.37240605930965        0.64649516740734       -0.00530168487627
C           -3.38483463200433       -0.87293798286766       -0.07147273530682
H           -1.47755338363933        0.92039659582255       -1.05299971489428
H           -1.95499549904749        1.34014585938051        0.59031614948230
H           -0.32419519720086        0.71935445713759        0.27733259047720
O           -3.74676405770756       -2.08926478211291       -0.56716873122788
N           -4.11118498361579        0.11265371781839        0.15846623165667
H           -5.37889566239813       -1.86351018300990       -1.17122625184373
C           -5.51478296758038        0.37402483408084        0.03672879181725
H           -5.78430863296105        0.88550330061757        0.96632307154376
C           -5.65318993523536        1.38037648101717       -1.13503471539027
C           -6.54920928662326       -0.71600991874765       -0.17721974713775
H           -4.83353752075217        2.09520346912145       -1.03943862473127
H           -5.50976384432642        0.83076214668107       -2.06976348153037
C           -6.98289488542362        2.13692256956326       -1.19238990810383
O           -6.33063732567003       -1.73761658737615       -1.01093184933897
H           -7.80392032769083        1.41482966704666       -1.15933627610958
C           -7.13568822654636        3.10221899648415       -0.02035839863736
C           -7.06918717125112        2.90392889473956       -2.51154978125332
H           -6.33111178278629        3.83485963050182       -0.02553614887157
H           -8.08288570113833        3.63023398251960       -0.09398185945949
H           -7.11860616130208        2.57605689860178        0.92979604278008
H           -7.00668756811042        2.22609658191759       -3.35990716249250
H           -8.01233280212254        3.44061577713879       -2.57400691971565
H           -6.25792420086812        3.62538358221350       -2.58632753523032
N           -7.66964014817213       -0.51436739684742        0.37509226985701
H           -8.83220281938897        0.65375895346730        1.10931275843347
C           -8.79277771663500       -1.39868125968936        0.15686114810797
H           -8.87028128907506       -1.71231390306785       -0.89243447634498
C           -8.71101325869765       -2.64845750745027        1.03976696060028
C          -10.06214640887181       -0.61869730049884        0.52945281497160
H           -8.58125964981616       -2.35871633290320        2.08061860314849
H           -9.63041865780087       -3.21834673453427        0.93962191311212
H           -7.86805167063242       -3.26346187290102        0.73465568871545
O           -9.81444951467149        0.55675270085771        1.09528905041350
O          -11.16944615617146       -1.03970623310033        0.33840611281494
