42
 energy: -62.486133513683 gnorm: 0.000479387581 xtb: 6.7.1 (edcfbbe)
N           -2.15046278392783       -0.80252527820895        1.72831366393693
H           -1.19195517240814       -1.12687476871334        1.68044826894931
H           -2.66548269422315       -1.46423194110186        2.30348834560933
H           -3.18805509510006        0.77960561941142        2.05610681635103
C           -2.74843407193239       -0.74990614044694        0.39422535028776
H           -2.04616858938599       -0.20879551878614       -0.25388141423641
C           -3.05737228214269       -2.11188976052868       -0.22188060499223
C           -3.99420982588288        0.11662858584686        0.49972304384536
H           -3.64957554163136       -2.71130550842226        0.46551148700646
H           -3.62733310521960       -1.97044878658108       -1.13337556034109
H           -2.13566487628781       -2.64399118648778       -0.44829281874224
O           -3.98822461439541        0.98390329498335        1.53103568672213
N           -4.91270846706952       -0.00224548588351       -0.34896784926166
H           -8.42692621296378        1.37635117843799       -0.76731124202373
C           -6.09030612253651        0.82846531446800       -0.29416797586664
H           -6.11593324336656        1.43311894973723        0.62744299354772
C           -6.12129129317138        1.75937969067220       -1.52635318169688
C           -7.29433570930949       -0.08591396461674       -0.24564680597378
H           -5.13462501355856        1.72259489124583       -1.99138567229423
H           -6.82713572542101        1.36913277373382       -2.26459548536206
C           -6.45809308137755        3.21868992111453       -1.19054302143780
O           -8.50460982616185        0.44357379910776       -0.52956874009416
H           -7.31539258953773        3.24986967794584       -0.50397182310509
C           -5.27453010788557        3.89735141786973       -0.50438314851861
C           -6.83588546392828        3.97585224934970       -2.46250222009134
H           -4.43263389783636        3.96203194622769       -1.19029874752942
H           -5.54081000005140        4.90406244166199       -0.19078142397407
H           -4.95649379509529        3.33794077265509        0.37193282162279
H           -7.71248494840682        3.53687094707085       -2.93517663500694
H           -7.05626010784816        5.01588794681751       -2.23413034212767
H           -6.01416916885800        3.94822410968261       -3.17440185260470
N           -7.12299134685277       -1.27507064207847        0.11783590268085
H           -5.97317170949639       -2.47898067136900        0.64698375209117
C           -8.16780487457016       -2.25575212270526        0.26073215159698
H           -8.99150577042418       -1.88750107716718        0.88530478852061
C           -8.73253520250003       -2.71192659963291       -1.08840276357092
C           -7.51606055603642       -3.46502866165978        0.95668815702375
H           -7.92068881409671       -3.02841052143501       -1.74011205928294
H           -9.40958868305733       -3.54659515828659       -0.92988886469044
H           -9.26978690316587       -1.89417831459318       -1.56171336442396
O           -6.19565670002417       -3.36302795927166        1.04299767403427
O           -8.13883730007195       -4.40696131403532        1.36189797067628
