42
 energy: -62.486133525155 gnorm: 0.000474264376 xtb: 6.7.1 (edcfbbe)
N           -2.40385011126478       -0.91852770666842       -2.06303705321403
H           -2.50010378368888       -0.11993268682274       -2.68227706358694
H           -2.45754438910972       -1.75675565980703       -2.63068610300968
H           -1.35832264274683       -0.24626210528372       -0.63975459328071
C           -3.46559876779902       -0.91785064554892       -1.05342809467410
H           -4.44869044351584       -0.66756445916467       -1.46926584777301
C           -3.51644760594760       -2.29756130614397       -0.39453653816400
C           -3.07008729879818        0.12831054096146       -0.00283040029154
H           -2.52712690787500       -2.57032192394719       -0.03245717889334
H           -4.20571552874218       -2.30195887984515        0.44442284095036
H           -3.84737234358165       -3.04396130697705       -1.11448482371395
O           -1.74555766935138        0.27692654980644        0.09579204175410
N           -3.77470496276877        0.84718602770848        0.75267704980611
H           -5.62849721399154       -0.78701260911205        2.54172146270675
C           -5.19718214948020        0.94597232046231        0.92000567840272
H           -5.32856762697110        1.25599360739123        1.96749688308088
C           -5.70665080477136        2.07460538613906        0.00399081566837
C           -5.98890189538250       -0.32613872571339        0.70824538299665
H           -5.06536697536726        2.94197895373592        0.16672421864425
H           -5.57367268129568        1.74614883157276       -1.02796919662901
C           -7.17118438821216        2.46298200907640        0.22933704584226
O           -6.10269909614568       -1.14586238971528        1.78033684758823
H           -7.78140554025106        1.55406740266212        0.20874464843689
C           -7.37376728184336        3.16073983022085        1.57229606505459
C           -7.63081036986462        3.37866091115362       -0.90425843470922
H           -6.74529699086546        4.04605185593075        1.63710879609039
H           -8.41119436293113        3.46804094603141        1.68261482112490
H           -7.13006265174305        2.50433387975749        2.40362625443739
H           -7.53215361502294        2.88278422711984       -1.86704599219104
H           -8.67290055849102        3.65837940934669       -0.76947931300121
H           -7.03197902979818        4.28646135892372       -0.92248616922391
N           -6.45284377639137       -0.62521693004748       -0.42347249928732
H           -6.71094009481320       -0.30544035912256       -2.24569419328371
C           -7.13993368884402       -1.87169932244417       -0.67203393051108
H           -6.71997387714009       -2.70811128901318       -0.10130782480961
C           -8.63460835809021       -1.74661953752380       -0.35271619909258
C           -6.99894084790208       -2.15036719169741       -2.17261078145806
H           -9.06951467898541       -0.91673001549782       -0.90696915989907
H           -9.14334681276313       -2.66566422940224       -0.62989081542428
H           -8.76783019470995       -1.56978575109912        0.71193790806001
O           -6.79854971435974       -1.04455143741925       -2.88747977019337
O           -7.07623448708617       -3.24271389427325       -2.65835861915711
