42
 energy: -62.486133508264 gnorm: 0.000481240200 xtb: 6.7.1 (edcfbbe)
N           -0.71367314721758       -0.10704996464915       -0.57464777974446
H            0.05805586513988       -0.53660538469734       -1.06937446018572
H           -0.46713061400335       -0.07444466286650        0.41075117401539
H           -1.82297830898733        1.41777037034872       -0.67724495002425
C           -1.94742774561434       -0.86998135667118       -0.75357354879482
H           -2.01946738294186       -1.12763887372594       -1.81842509283747
C           -2.02282322324013       -2.14661132336212        0.08207427249558
C           -3.11114140500468        0.07725761545887       -0.45401000904128
H           -1.95580637912573       -1.90378073515906        1.14063594678991
H           -2.96577251029286       -2.65409069591169       -0.09059100263674
H           -1.20597349903521       -2.81655858314239       -0.17951467725573
O           -2.78656914940868        1.37501004057473       -0.49634018740459
N           -4.23038776682733       -0.42689442926902       -0.18657603250318
H           -5.12721802379059       -1.68664433769209       -1.18032573359296
C           -5.49103700510932        0.24516533634128        0.03273989286338
H           -5.62284135884754        0.36809830871134        1.11285844114638
C           -5.62296579974586        1.61648912270113       -0.65817296686148
C           -6.55307927956436       -0.72292670185194       -0.47236141556195
H           -4.83400762676325        2.26118461072704       -0.26992259368673
H           -5.43923463917761        1.47271247343547       -1.72683688824270
C           -6.96565933928130        2.32908528907416       -0.47674911611723
O           -6.10540760118934       -1.73834808260957       -1.22168252645055
H           -7.75513930123947        1.71480065785242       -0.91666917922148
C           -7.28948127640725        2.56893705828476        0.99545887209498
C           -6.92497347076634        3.66205185270879       -1.22356242834971
H           -6.49881009405784        3.14908859001189        1.46769558507271
H           -8.22104992644187        3.12194404801089        1.08706914946413
H           -7.39885513151974        1.62929371521964        1.53000761316569
H           -6.70819669978175        3.50853172367556       -2.27820862050895
H           -7.88335290189533        4.16863359964654       -1.14239604401863
H           -6.15686699463444        4.31020757933445       -0.80619831970488
N           -7.76479742250539       -0.54501002899420       -0.17086714911962
H           -9.12354906170001        0.51944818310550        0.45701714683680
C           -8.79432811005707       -1.44310713113045       -0.64855755624303
H           -8.65262024539818       -1.70506508596631       -1.70467994697095
C           -8.84133461729423       -2.73393628555285        0.17752740258835
C          -10.14178409848946       -0.72529500593897       -0.49262935238851
H           -8.94022293854677       -2.49412385090266        1.23443221701217
H           -9.69431071116019       -3.32981971242653       -0.13446064972442
H           -7.92708422115370       -3.30222919194544        0.02649358615277
O          -10.07230844799332        0.38795300871692        0.22740751753909
O          -11.16457964834768       -1.14552761283646       -0.95865558073512
