42
 energy: -62.486133503343 gnorm: 0.000481615882 xtb: 6.7.1 (edcfbbe)
N           -0.86884845190634       -0.79416974827771        0.18937856493014
H           -0.50873389573586        0.12761685552580        0.41435420082301
H           -0.09762623756198       -1.35285727146242       -0.15660797044604
H           -2.30526510275696       -1.01761868491857        1.42971628838230
C           -1.93374095385153       -0.70416375602976       -0.80994064098762
H           -1.75107422333558        0.04548573047526       -1.59087896481458
C           -2.14955872096691       -2.06806994184213       -1.46707712316786
C           -3.20171737137823       -0.32504687370968       -0.07075118065606
H           -2.33524838931063       -2.82640109840029       -0.70919754380340
H           -3.00406912666019       -2.01791543836465       -2.13504362733125
H           -1.27057417790667       -2.35434857355430       -2.04046707879919
O           -3.21505478543774       -0.70543777420954        1.23637028437668
N           -4.13735354773580        0.24953677415759       -0.67287053606034
H           -4.98498372298621       -1.46324980093464        1.14523841310082
C           -5.37339573583211        0.62019987724028       -0.00854281233295
H           -5.17454045094031        0.90313492472406        1.03859187214750
C           -5.97933688126254        1.79475118129826       -0.77743502648059
C           -6.27969817872954       -0.59318229507479        0.02413136332868
H           -5.18853287071324        2.52984690672987       -0.93695212605192
H           -6.28611758654846        1.42138340750566       -1.75378772887710
C           -7.16456885819523        2.46164909980346       -0.07087630885150
O           -5.85208745761457       -1.64525546582774        0.74791965061093
H           -7.82337552505287        1.67919888188853        0.31629133735279
C           -6.69909212702533        3.33297580148573        1.09453018426437
C           -7.95055872028160        3.30968516313793       -1.06911291858267
H           -6.05175979693783        4.13079260896189        0.73567351266783
H           -7.55328655665529        3.78510286299968        1.59329111929686
H           -6.15029993216649        2.75128957957970        1.83111721817249
H           -8.34438564832922        2.69580882779658       -1.87517766431718
H           -8.78572806697644        3.80116174573175       -0.57569328663106
H           -7.30982214262306        4.07565929058849       -1.50091050940101
N           -7.37207404447395       -0.58343313422972       -0.59985684452073
H           -8.43751232038347        0.18248641323262       -1.82778981588222
C           -8.27082868418566       -1.71332628294048       -0.61183245110913
H           -7.73816884990624       -2.66005555356799       -0.76635847011975
C           -9.08279475849707       -1.80862933216837        0.68483063060009
C           -9.24781155040797       -1.49247364709611       -1.77788883204962
H           -9.59261871024046       -0.86597165719109        0.87468486801042
H           -9.82197555090852       -2.59867076413508        0.58715307383274
H           -8.42338180903909       -2.03083270760917        1.52007387853821
O           -9.16929792605121       -0.27779581371777       -2.30604753146553
O          -10.01929181457334       -2.33088615138529       -2.15331439531026
