42
 energy: -62.486133507467 gnorm: 0.000480061229 xtb: 6.7.1 (edcfbbe)
N           -1.23482884843284       -0.68752248065128        0.82192578227179
H           -0.30904658787070       -1.00977931287014        0.56744336661298
H           -1.53537892562393       -1.22918604124772        1.62795383251939
H           -2.22696483115919        0.93385333766372        1.15874940285798
C           -2.17714606948377       -0.88012510660466       -0.27961709779696
H           -1.69890513986551       -0.49062217116005       -1.18803466213885
C           -2.60045459108439       -2.32867834663062       -0.51228075551908
C           -3.37872293486003        0.00965742491807        0.00129500299687
H           -3.05030111518231       -2.73504401739761        0.39111533723619
H           -3.33939922543927       -2.36690376858816       -1.30504839604480
H           -1.74159849837464       -2.93767622707607       -0.78737658170437
O           -3.14350637018627        1.03791044393350        0.83235933482976
N           -4.48475515264922       -0.24323883976022       -0.54133789874888
H           -6.27948244370979       -0.12537030163993       -2.48944297011690
C           -5.63378872691659        0.61002462980623       -0.29836587238274
H           -5.70699515266055        0.85567099894964        0.76760585020385
C           -5.54441570732175        1.90871084613782       -1.11407871665286
C           -6.82951828831752       -0.23302231372350       -0.67442012001726
H           -4.73175357810026        2.50471259942468       -0.69463317355526
H           -5.26794092055327        1.66952052852387       -2.14677602089500
C           -6.83740324309158        2.73200716459036       -1.11096772856941
O           -7.01604924484519       -0.48885814290172       -1.98196590775615
H           -7.64640923308501        2.12758361142415       -1.53706762413883
C           -7.23912336415195        3.14270616858940        0.30335938062118
C           -6.64842720580336        3.96964647193741       -1.98715239278147
H           -6.41617154961970        3.65368828722151        0.79847996507544
H           -8.09094020161166        3.81781967712156        0.26806315025433
H           -7.52036267711475        2.27592260865527        0.89539192886032
H           -6.37657543532980        3.69019675568557       -3.00303455707640
H           -7.56682833901842        4.54995657049422       -2.02790832700830
H           -5.86099836589791        4.60188787624653       -1.58235223327386
N           -7.53471638971517       -0.73667114209965        0.23936278948520
H           -8.04974223869207       -0.79199266991437        1.96901176321980
C           -8.64519646168967       -1.61841615515097       -0.04944378663101
H           -9.28484665520227       -1.21786790190987       -0.84573886284031
C           -8.17194835714342       -3.01901345885220       -0.45392032013631
C           -9.47603665563607       -1.73831282196192        1.23674064635306
H           -7.49272557334220       -3.41170095316445        0.29999122444035
H           -9.03232444120649       -3.67697427260209       -0.53759452739137
H           -7.65393660585501       -2.97417650017858       -1.40814454355471
O           -8.89147701450072       -1.18982313167351        2.29541479352624
O          -10.53904889490237       -2.29252575245848        1.28137457164742
