42
 energy: -62.486133515719 gnorm: 0.000479435139 xtb: 6.7.1 (edcfbbe)
N           -2.40497487023543       -2.28991019517842        0.96060363320342
H           -2.70542167590104       -2.45651435749489        1.91491506093690
H           -1.44171043656964       -2.59063136036800        0.87472575724086
H           -4.03278231508554       -2.49337802740238        0.06734940140848
C           -2.55087782402874       -0.88060080186436        0.60635831317752
H           -2.23820659716019       -0.18792224621202        1.39946563549735
C           -1.75078868724922       -0.58087460179528       -0.66092638188342
C           -4.03443958520978       -0.64230558088051        0.31987850599551
H           -2.05362783013425       -1.25259667923800       -1.46093031914321
H           -1.93399630439871        0.44344440100542       -0.96959256844161
H           -0.68605343306969       -0.71012538818743       -0.47842873183611
O           -4.68414027211589       -1.76197639926150       -0.03937465816087
N           -4.43368817967878        0.54279169884740        0.34553718964322
H           -7.92843199636298        2.03520536221972        0.47879102165678
C           -5.72921668769342        1.13333281111017        0.16263569285891
H           -5.73072742836292        2.00422575078499        0.83384400267610
C           -5.72619088849909        1.61744979648680       -1.31539424513869
C           -6.98912607030599        0.34338499455777        0.43953646598320
H           -4.73909199374489        2.05318390142418       -1.48786919582280
H           -5.80429120216376        0.72197759322947       -1.93654197935867
C           -6.78735432457810        2.63016641901989       -1.75773959311438
O           -8.12156216806325        1.09289318432801        0.54643784129629
H           -7.78817036459890        2.21307679079536       -1.60407726718248
C           -6.66219836940088        3.95762007582488       -1.01010157128782
C           -6.62810279917674        2.87826067548666       -3.25866785615496
H           -5.68025409215712        4.39164396475301       -1.18614817091327
H           -7.41396634037869        4.66028118931141       -1.36311009377418
H           -6.78824960542567        3.84595484135103        0.06551886965828
H           -6.74070583582793        1.95144667597615       -3.81602236769281
H           -7.38014871127745        3.58135406009647       -3.60891376755861
H           -5.64511340015608        3.29133453584779       -3.47395908810808
N           -7.00030870975632       -0.89285536232282        0.64930039849344
H           -6.11115094647458       -2.52485954065097        0.94572469331044
C           -8.21359378686155       -1.60077263801900        0.97549133625428
H           -8.86332928413903       -1.02493283225698        1.64719949413775
C           -9.00084325835204       -1.96233326447127       -0.28935853647950
C           -7.80472720305639       -2.90618356462981        1.67018968385720
H           -8.35612732400827       -2.49342956900309       -0.98685226993906
H           -9.84098879071660       -2.59737164850145       -0.02231943085184
H           -9.36997204835993       -1.05740993046998       -0.76588310969041
O           -6.53807624007611       -3.24162090448628        1.47897259103396
O           -8.57346340829479       -3.57244952522940        2.30867080216809
