42
 energy: -62.486133515455 gnorm: 0.000479784593 xtb: 6.7.1 (edcfbbe)
N           -1.74562276812982       -1.23952857537938       -0.61041584426598
H           -1.15876598003675       -2.06256447520309       -0.55070502332751
H           -1.19909633382401       -0.45007530962260       -0.27696841509992
H           -2.91551832576610       -0.39197755968193       -1.85279937021259
C           -2.94671557723931       -1.39224801698018        0.21162829540149
H           -3.35009210018358       -2.39443560461948        0.02020709179637
C           -2.72079056545233       -1.22080539737714        1.71094184951442
C           -3.98508675194547       -0.40636858554713       -0.31261531228767
H           -2.28961982447017       -0.24261221532242        1.91526795052576
H           -3.67310445529721       -1.28971131704492        2.22477456193455
H           -2.04876189230878       -1.98997759932657        2.08596569536203
O           -3.77031635937308        0.00129412948306       -1.57884933024446
N           -4.94943462188088       -0.09921235270604        0.42826109527988
H           -7.40120750212156        1.02817928383609       -2.02114353553644
C           -6.03336588293207        0.78175871320400        0.04798385465302
H           -6.40593599921266        1.17142133699551        1.00593385214901
C           -5.66031352543895        1.96561276866005       -0.85427568691002
C           -7.13450633291455       -0.11531647320368       -0.50005778479598
H           -4.68402263538707        2.32982660995728       -0.52690731114941
H           -5.52774792624063        1.62767856445096       -1.88619046958195
C           -6.66587486408266        3.12746632472886       -0.78203498369905
O           -7.75370603373703        0.20828611198342       -1.65150858725006
H           -7.68855725188698        2.73291480377739       -0.73387162930404
C           -6.43351005009121        3.96943056877964        0.47114794695243
C           -6.54199443040559        4.00623106985772       -2.02684241193991
H           -5.44751483765584        4.42838766784398        0.44016357407806
H           -7.17705652332976        4.76014870399237        0.53989751788611
H           -6.50047600280380        3.36143358373298        1.36992632315500
H           -6.76530709993204        3.44642454700172       -2.93361078517877
H           -7.23063413551771        4.84591132083237       -1.96971683685194
H           -5.53087051776491        4.39900911099546       -2.10986381819624
N           -7.41088410063570       -1.15192795042288        0.15671417438948
H           -7.12751349823256       -2.14178511596256        1.61846904795276
C           -8.40188473796122       -2.11605360598701       -0.25384714259119
H           -9.37236045890248       -1.64020474286451       -0.44476222370206
C           -7.98376156206463       -2.90123813984627       -1.50193641886393
C           -8.55928360536555       -3.10552686421782        0.91417322222917
H           -6.99234188222037       -3.32564835973971       -1.35528826455094
H           -8.69426583674147       -3.70549402708977       -1.67110182195384
H           -7.96474940646891       -2.24572137707310       -2.36850044385144
O           -7.67047661341884       -2.92618813910619        1.88109863742887
O           -9.39314247015763       -3.96881926866969        0.93019409066698
