42
 energy: -62.486133515948 gnorm: 0.000479318501 xtb: 6.7.1 (edcfbbe)
N           -0.88695810398380       -0.99900717076136        0.14640951024191
H            0.02325369060078       -1.03560811459398       -0.29589286230200
H           -1.08555377435276       -1.92758730364859        0.50921872031673
H           -1.86385805787698        0.09565400215306        1.38007053880090
C           -1.92066556273453       -0.61066276833688       -0.81318473466916
H           -1.53230491001016        0.23997305842115       -1.38731381556492
C           -2.34887470536724       -1.71420711595033       -1.77716521490501
C           -3.10504964955339       -0.08644371760598       -0.01542543391736
H           -2.69984484498154       -2.58216921656878       -1.22236781167015
H           -3.16371665440635       -1.35262920531749       -2.39472068486986
H           -1.51614467889812       -2.01191169953505       -2.41090450231300
O           -2.81603719279483        0.28273223942311        1.25204939854180
N           -4.23884721755770       -0.02766950528722       -0.55129561712500
H           -5.25355207743357       -1.26303458885892        1.69882751253880
C           -5.37926927242102        0.54290556391353        0.13869513008917
H           -5.11120992322192        0.90788769598416        1.14263709402784
C           -5.91867247801574        1.68968662325442       -0.72099211936372
C           -6.36036838085711       -0.59815850917445        0.27828027217555
H           -5.11397102442041        2.41645414074102       -0.85124890972504
H           -6.15520643767113        1.27304189082275       -1.69975188706620
C           -7.15085914643567        2.39109076970036       -0.14117304173284
O           -6.07628213109615       -1.49639351362739        1.24970625185098
H           -7.88414429224212        1.62945088956717        0.13868576948741
C           -6.80114669573456        3.21571942743214        1.09602213359876
C           -7.77095043867494        3.29203153675117       -1.20776492920959
H           -6.05514358436186        3.96932127284660        0.85174520866545
H           -7.68665502317167        3.72200220954326        1.47342782403498
H           -6.40907866349482        2.58931510360137        1.89310738312690
H           -8.06681372722499        2.71201724312233       -2.07827149941601
H           -8.65213406706607        3.79453075576333       -0.81606766405095
H           -7.05767341278256        4.05001272446271       -1.52485496218775
N           -7.33356004668161       -0.71673484876332       -0.50619495077087
H           -8.13891656649183       -0.22718913851739       -2.04043288008588
C           -8.25360097806570       -1.82715963060418       -0.44517956966967
H           -7.73343935944111       -2.78464500884966       -0.31651315873761
C           -9.27014540653907       -1.65991346473326        0.68982516365101
C           -9.01753383412301       -1.84831754240054       -1.77923612254377
H           -9.77732654086460       -0.70151899497201        0.59679135184072
H          -10.00545426255444       -2.45737636453031        0.63240275615939
H           -8.76390086986614       -1.70253049339232        1.65095334727231
O           -8.80216244175546       -0.77359637445991       -2.52652998987544
O           -9.75241851085408       -2.74138867620766       -2.09743790627397
