42
 energy: -62.486143125509 gnorm: 0.000732954002 xtb: 6.7.1 (edcfbbe)
N           -1.82148522063571       -1.64923670700350       -1.80478091647378
H           -0.95700389875871       -2.17602580011256       -1.78543634638076
H           -1.72856836173183       -0.93349428401896       -2.52026791014767
H           -3.73518648285603       -1.91958740935923       -1.87876627021106
C           -2.08689782227769       -1.02622189996279       -0.51028095896696
H           -1.93144619813865       -1.79647146498655        0.25721305021833
C           -1.21613384747837        0.18639014104334       -0.18877330417074
C           -3.56681804468611       -0.66864636969572       -0.48352688423192
H           -1.32679246201944        0.94165726496856       -0.96411695094897
H           -1.53243593839677        0.61800370335660        0.75469048375917
H           -0.16935526099011       -0.10327262261422       -0.12254339678718
O           -4.33082785541256       -1.35189321540992       -1.34904624964181
N           -3.98676491012645        0.20086187167522        0.32831540475429
H           -4.83549501794496       -1.53400446400606        1.46197145649497
C           -5.39813756671071        0.53723145313565        0.38146676875919
H           -5.51414818014537        1.12066150031964        1.30592863485811
C           -5.81030600969010        1.40466059756285       -0.81753144123467
C           -6.27309152436974       -0.69220828015115        0.52630867567553
H           -4.95239489721517        2.02276490900149       -1.09314660541327
H           -6.03205428286052        0.73989284275815       -1.65326811671466
C           -7.01266269964999        2.31353907019917       -0.53629304248515
O           -5.75272310281583       -1.72603830956530        1.22216558578671
H           -7.75148182378058        1.74163058813815        0.03139474586182
C           -6.60044797319893        3.53364876315385        0.28488018671665
C           -7.64338601583681        2.76261740260363       -1.85330488005776
H           -5.88390004076012        4.13890527481759       -0.26759265342017
H           -7.46843271252495        4.14998274967879        0.50710753074981
H           -6.14430163490592        3.23985499257177        1.22673531981400
H           -7.99729999703132        1.91028009080599       -2.42775159606742
H           -8.48893765696619        3.41938487476398       -1.66417134310605
H           -6.91737026343154        3.30606119889947       -2.45526554170908
N           -7.46109411349023       -0.67261018341258        0.11387134496567
H           -8.56950362577617       -0.10210863964921       -1.20829818261537
C           -8.35058240930206       -1.79742689764390        0.28462782308281
H           -7.82114958122840       -2.75800779897421        0.25437534557689
C           -9.11695165420314       -1.69082481942047        1.60755241639666
C           -9.36456631819987       -1.75515998253186       -0.86828812660268
H           -9.60823077543162       -0.72217590593869        1.67443239454531
H           -9.86728303405780       -2.47512211247430        1.65217358263141
H           -8.43040460327826       -1.79816392077945        2.44382357848696
O           -9.30339106715366       -0.64095657004970       -1.58826795040503
O          -10.14678150638962       -2.63859420858762       -1.08469719941907
