42
 energy: -62.486133508341 gnorm: 0.000480661273 xtb: 6.7.1 (edcfbbe)
N           -0.80069959706718       -0.23901382522144        0.33679602795431
H            0.12197464812824       -0.41330080312647       -0.04268278082136
H           -0.89726670453487       -0.80170209218004        1.17767573199282
H           -1.97055312102464        1.26034602473500        0.74352219919030
C           -1.84113886420659       -0.60033738536487       -0.62445662362861
H           -1.56627828267479       -0.14181634498032       -1.58404895321273
C           -2.03355957248106       -2.10293266896479       -0.82234150331197
C           -3.11901132444480        0.08546734584284       -0.16329513471965
H           -2.38618262603021       -2.56229018968720        0.09841805952713
H           -2.76621021113468       -2.28597141930273       -1.60124470531806
H           -1.09182763450588       -2.56567738537540       -1.11137478685495
O           -2.93106650714091        1.18957396216134        0.57167522986535
N           -4.23887423695947       -0.39510826420860       -0.47690374568967
H           -5.21392558436498       -1.66912734059470       -1.34109154381261
C           -5.48829604019079        0.23880303135514       -0.10779629824041
H           -5.52509605398171        0.44391369262766        0.96671764073104
C           -5.65125089548542        1.56381538798501       -0.88276595452482
C           -6.57866548342710       -0.74653632641499       -0.48504855169000
H           -4.81469655548277        2.20605772022788       -0.60045989454423
H           -5.55839156159278        1.33848836734225       -1.94898156988923
C           -6.96000610071335        2.31924511358775       -0.64292080081423
O           -6.18633672567670       -1.76951748692119       -1.25061301096420
H           -7.79338036532273        1.68476127682535       -0.95537703018506
C           -7.14433189874236        2.68526365175679        0.82708503682834
C           -6.97085615068455        3.58344112953748       -1.50176766580010
H           -6.29923279574233        3.27308166003574        1.18011712479867
H           -8.04966416034377        3.27343835440161        0.95443432130698
H           -7.23000435748672        1.79428536637444        1.44275193656498
H           -6.85018220953812        3.33788253555110       -2.55445235271724
H           -7.91291002203507        4.11202953107169       -1.38091167545055
H           -6.16254742084736        4.25082121946499       -1.20922635934533
N           -7.76474955352644       -0.55257535061037       -0.09993123459380
H           -9.04814485369612        0.52627430980187        0.61585502761363
C           -8.83158172468877       -1.45540632009661       -0.47624651237019
H           -8.79325421804166       -1.70405640307033       -1.54477245427929
C           -8.79444418689659       -2.75769104915944        0.33126693991625
C          -10.15906020496087       -0.74194184970525       -0.18416978886861
H           -8.78905900082232       -2.53431047006573        1.39635386276530
H           -9.67413895904292       -3.34998106133594        0.09589101943097
H           -7.89965970969249       -3.32203752504451        0.08154636570430
O          -10.01683600336481        0.39125350720171        0.49269156052994
O          -11.22479442959445       -1.17893749651818       -0.52098215769710
