42
 energy: -62.486133515733 gnorm: 0.000478909145 xtb: 6.7.1 (edcfbbe)
N           -1.06779545885285       -0.50024585930890       -1.21432980754355
H           -0.41578481736859       -1.13729604814483       -1.65645860706096
H           -0.65165104403492       -0.19489912736958       -0.33824099959247
H           -2.20013919692818        1.01002402907304       -1.65850792168888
C           -2.34432885089938       -1.16354992535868       -0.95034013119846
H           -2.65548756373873       -1.64694881907430       -1.88543916211886
C           -2.30637463502597       -2.20560368678232        0.16318367889788
C           -3.37570303599539       -0.07335226865330       -0.67443434120146
H           -1.97686321237550       -1.74835241585746        1.09363431871274
H           -3.30367978637115       -2.60322851980570        0.31224553445505
H           -1.62650048719859       -3.01521011045985       -0.09525807632426
O           -3.07884945779152        1.11041122631275       -1.24161866525240
N           -4.37658652159392       -0.36635796501219        0.01975237445713
H           -7.12106405607921       -0.11735484280677        2.09391012371514
C           -5.49459846287640        0.47848692232876        0.35517357863008
H           -5.36659190459895        0.74050300828533        1.41650045360473
C           -5.69490396551889        1.75687379318557       -0.47621283271789
C           -6.72436209964740       -0.39447492247723        0.20476535295547
H           -4.81432009449653        2.39109515780059       -0.37460042549483
H           -5.77554111158000        1.44626477086155       -1.51856302682398
C           -6.94342194767046        2.55805489224606       -0.08938580834294
O           -7.51985615890251       -0.54507154352131        1.32692347766872
H           -7.81247964700997        1.89051231236371       -0.08163864541439
C           -6.80221374434404        3.20584766826674        1.28758736245121
C           -7.19319256132985        3.63782318369450       -1.14045450098523
H           -5.93613657437348        3.86441998241903        1.30551247413439
H           -7.68589377168792        3.79709226551867        1.51685907274475
H           -6.68337323491988        2.46628222363094        2.07682718238628
H           -7.34338068584225        3.18850813250772       -2.11864066224950
H           -8.07924191703187        4.21668514432636       -0.89028609623585
H           -6.34322098126855        4.31458963718130       -1.19782446428096
N           -6.95884793825737       -0.92266177429017       -0.90178299707641
H           -9.11402361225279       -0.46671691575562        0.46853858103855
C           -8.05178949014148       -1.79558295857936       -1.24199718564879
H           -7.82412122306290       -2.16425349295322       -2.24886650969937
C           -8.22812098625576       -2.99217186139515       -0.29730295724571
C           -9.38780836925384       -1.04380433975844       -1.34486232552777
H           -8.51612142913597       -2.67413011102588        0.70232559189663
H           -8.99437190869630       -3.65519425726040       -0.69169228184835
H           -7.28854199692145       -3.53570133318135       -0.22957965970128
O           -9.76495167440951       -0.37760530539888       -0.25321845972512
O          -10.06395564901092       -1.06573167587275       -2.33326745925867
