42
 energy: -62.486133503138 gnorm: 0.000481112165 xtb: 6.7.1 (edcfbbe)
N           -0.88187059983153       -0.44198129990531       -0.14111420753173
H           -0.06473013821074       -0.73646726684075       -0.66207416067129
H           -0.85716534128391       -0.91625422682670        0.75763309809574
H           -1.84794353448899        1.17821090412523        0.32298932827105
C           -2.10973205786572       -0.79623369811109       -0.85351248918409
H           -1.98418347401809       -0.47649132803922       -1.89599337887284
C           -2.46755487926251       -2.27972429585192       -0.82398490645968
C           -3.22991969258456        0.05533568453418       -0.27702925638325
H           -2.54092809918907       -2.62707444082515        0.20481011791623
H           -3.43110107243601       -2.41995162658727       -1.30166098967888
H           -1.71261925139915       -2.86654542517067       -1.34323772212785
O           -2.82553515000373        1.19390310397310        0.32262413285579
N           -4.42213160609915       -0.31979199986611       -0.39681664373416
H           -6.49634556620527       -0.32801933238060        2.14481066748472
C           -5.51095825080571        0.50313778424486        0.08150542166229
H           -5.26168759531084        0.94285188859430        1.06081288783072
C           -5.79611031418475        1.63035852692870       -0.92305313386518
C           -6.71474524853538       -0.40010929059943        0.20823861181911
H           -4.89321302427333        2.23722799362086       -1.01327055672200
H           -5.99607347090590        1.15009823178204       -1.88107092840755
C           -6.98110078132494        2.52452265064797       -0.54714995645645
O           -7.11500549327012       -0.69509347631737        1.50187415677158
H           -7.86647824900644        1.89465630095942       -0.40956588290734
C           -6.72573662437490        3.30844592073163        0.73898615024794
C           -7.25872234320768        3.49131127617906       -1.69673287521131
H           -5.79961552914028        3.87433540324485        0.66029545002656
H           -7.54034719700600        4.00598497478709        0.91966893854317
H           -6.65536875674891        2.65168744233675        1.60288552708187
H           -7.46868903597436        2.94368957820168       -2.61172164803864
H           -8.11713262056207        4.11846742214942       -1.46853455204238
H           -6.39788613992039        4.13464119046781       -1.86762613005776
N           -7.26904251336201       -0.84034596908145       -0.81910630589520
H           -8.89917525829999       -0.59820516063883        1.16478439705261
C           -8.38538566086801       -1.74489816734996       -0.89442785599922
H           -8.46684590571106       -2.01669892086096       -1.95321090383186
C           -8.22927793008282       -3.02335189390025       -0.05943372982211
C           -9.71059637419678       -1.06681759833315       -0.51414264290310
H           -8.20874249441425       -2.80497642846127        1.00595795774100
H           -9.05892632591420       -3.69472549904024       -0.26675224647521
H           -7.29768775474083       -3.51508050689738       -0.32985812631370
O           -9.74556604824536       -0.49670008683638        0.69074581622256
O          -10.66431385436558       -1.06535414143278       -1.23860635998598
