42
 energy: -62.486133524291 gnorm: 0.000478690748 xtb: 6.7.1 (edcfbbe)
N           -0.95779771497456       -1.42415987007489        0.07565516415025
H           -0.76772217100700       -1.34346846094170        1.06871760367183
H           -0.07022588277702       -1.46990058262916       -0.41016128990238
H           -2.56023872220134       -2.38542645500475       -0.05191518458510
C           -1.75632725931215       -0.29416397397054       -0.39876533341537
H           -1.51361858975792        0.65674209827886        0.09287846050021
C           -1.58879498901612       -0.13264055705038       -1.90942653296527
C           -3.21985314533337       -0.62039424114703       -0.11401644116758
H           -1.82724927526938       -1.06607855519202       -2.41504138800777
H           -2.25850428079487        0.64350199476353       -2.26696673089948
H           -0.56514687957787        0.14588837509725       -2.15075359406768
O           -3.44632642874503       -1.95989627098037       -0.01184646301061
N           -4.02750904803834        0.32294582704287       -0.03525317542768
H           -4.95366593418316       -1.91808334925396        0.78241512970246
C           -5.44682789298165        0.48851485931372        0.10915259836396
H           -5.55098364908475        1.13985804662968        0.98898678668469
C           -5.81253876712118        1.31844248237456       -1.14514899025671
C           -6.38158252528873       -0.68781521681053        0.36638048931026
H           -5.01724325456687        2.06246616470039       -1.23165188311492
H           -5.74123459165418        0.65763139553444       -2.01162980190031
C           -7.16150186773268        2.04308637928823       -1.18848378279073
O           -5.91012148033391       -1.81039464127338        0.92791019361985
H           -7.93686374569934        1.31516798722168       -1.43051978786451
C           -7.50905636772012        2.72304935560928        0.13168662214711
C           -7.12591915887420        3.07613874784476       -2.31544363392727
H           -6.71598819550914        3.40602399381137        0.42956109205223
H           -8.42829016227635        3.29438115395200        0.02518287804815
H           -7.65475044487169        1.98757307215535        0.91824374951994
H           -6.85865394123230        2.60652579017631       -3.25908272787217
H           -8.10161737415747        3.54147790695503       -2.43070917664726
H           -6.39726147924763        3.85503980659594       -2.09985358495328
N           -7.61704829540796       -0.53810865620569        0.13848407881990
H           -9.19445959779126        0.43184917828012       -0.29366919948114
C           -8.54037399681731       -1.60794801079944        0.45837090502882
H           -8.16684475312523       -2.58483407348518        0.12801459529822
C           -8.82688246866866       -1.67202002739734        1.96575114707998
C           -9.87037066737282       -1.30818551530718       -0.23608380675233
H           -9.18718168387967       -0.70678072364645        2.31814063838646
H           -9.58428992635203       -2.42656490562586        2.15894306628669
H           -7.91727053726654       -1.92901631229240        2.50215457644257
O          -10.03630265927771       -0.01965021993979       -0.51980093679677
O          -10.70175231361720       -2.14286361101236       -0.46172298039183
