42
 energy: -62.486133503551 gnorm: 0.000480996469 xtb: 6.7.1 (edcfbbe)
N           -0.98246158413502       -1.03243507586123       -0.01515746277994
H           -0.46439258951017       -0.16948340655213        0.11218741107769
H           -0.34280148010396       -1.72958744582738       -0.37707507520835
H           -2.31041466553900       -0.98722279757114        1.34330074265829
C           -2.10730686485975       -0.83476312352901       -0.93018040881447
H           -1.89662113057031       -0.13523871094717       -1.74946225200311
C           -2.54887251352179       -2.17500336805609       -1.51951876691586
C           -3.25703995043093       -0.27990811200613       -0.11151090891455
H           -2.76245697829776       -2.88424907216232       -0.72240681778886
H           -3.44601741652324       -2.03082780069902       -2.11401890632119
H           -1.76667501554022       -2.58545870793911       -2.15441902873076
O           -3.18834693502084       -0.56721226095847        1.21295037532700
N           -4.18084067490122        0.35501073142524       -0.67401759420691
H           -5.11916026712507       -0.86615135884036        1.78980138857974
C           -5.32106118632070        0.84273451676120        0.08355709756756
H           -4.99714996131988        1.22834267380252        1.06232215431351
C           -5.98386718640799        1.94721218557626       -0.74071133106106
C           -6.22872144828153       -0.34570899328606        0.31254861863420
H           -5.24723707399491        2.73907323015587       -0.88840675638060
H           -6.21686246535550        1.52255543101779       -1.71656538139054
C           -7.25346782504762        2.53410272467863       -0.11787657659901
O           -5.96918661878676       -1.11090300464418        1.39236268773614
H           -7.94673152482796        1.71428243804368        0.09212438759264
C           -6.95863816960183        3.27312808700105        1.18601843398569
C           -7.91403523191085        3.48281273492387       -1.11643609364059
H           -6.21444260451211        4.05029705753475        1.02320168895965
H           -7.86407716793313        3.74186292465073        1.56488296538940
H           -6.58987286633116        2.59496865257074        1.95147121672007
H           -8.15937465919181        2.96047209860453       -2.03761248790426
H           -8.83087840145583        3.89542868633216       -0.70201215252839
H           -7.24529598760365        4.30691848413970       -1.35585779662794
N           -7.12121462181480       -0.62566633608592       -0.52954079160084
H           -7.76037311703116       -0.45001977976607       -2.20801899180603
C           -7.96073599154537       -1.79197147382462       -0.39958474436790
H           -7.40664101485780       -2.66450757070485       -0.02998471585003
C           -9.14412496692836       -1.52356579173376        0.53730608645497
C           -8.51466209339130       -2.10301247381355       -1.79828858624382
H           -9.68858861135742       -0.64185964702604        0.20464574288212
H           -9.81286547319322       -2.37956380318724        0.52642747716771
H           -8.78385257270161       -1.35775010325645        1.54971085295345
O           -8.29315188559289       -1.13513366858476       -2.67852893730565
O           -9.10567245859273       -3.11402459425875       -2.05869160777518
