42
 energy: -62.486133525281 gnorm: 0.000478439623 xtb: 6.7.1 (edcfbbe)
N           -2.07621043681739       -1.05350593263977       -2.31950596835521
H           -1.35899656652270       -1.69843259705443       -2.62735292218973
H           -1.71756058218702       -0.11113428371018       -2.44635881072671
H           -3.95600774642308       -0.71800652700442       -2.54707185814830
C           -2.41505279725294       -1.27194163494311       -0.91518243047505
H           -2.54600086015484       -2.35303026669988       -0.77573218920005
C           -1.37669549931508       -0.75737530102518        0.07966953536052
C           -3.77899453544750       -0.63448865249723       -0.67917980028974
H           -1.21362359907988        0.30821492981228       -0.06893848788697
H           -1.73841939567312       -0.90887321861763        1.09081082640948
H           -0.43233207673943       -1.28223743993513       -0.04995160618671
O           -4.50608862616509       -0.43959922291517       -1.78560295611380
N           -4.13598298323414       -0.37408108864596        0.50081034290831
H           -5.71260190404621       -1.96683635249948        1.74472987567755
C           -5.44009266804170        0.20576932206732        0.79682454896409
H           -5.45523682328461        0.32434966129219        1.88975048130873
C           -5.65617289430292        1.56656826154692        0.12989013058670
C           -6.47818715585978       -0.82203120521354        0.41203687286201
H           -4.77772810012922        2.18254389409115        0.33676190267597
H           -5.71630249949972        1.40790688958117       -0.94598186874341
C           -6.91715123641066        2.29352362000491        0.60895014225137
O           -6.45238528380815       -1.97299065506444        1.12392794151504
H           -7.74000823959900        1.57340157354998        0.63874414434864
C           -6.72862994746786        2.88886525733158        2.00277864626791
C           -7.27739899723272        3.39822294650709       -0.38293725862353
H           -5.91780784827931        3.61484911019216        1.99778361501004
H           -7.63678435338291        3.39432702315997        2.32332924379126
H           -6.49583882820669        2.12012272140704        2.73538580857541
H           -7.47925216091931        2.98149510137836       -1.36654589804571
H           -8.16298854139752        3.93475103888279       -0.05059198432906
H           -6.45927572633234        4.11034479697056       -0.47071375491513
N           -7.25170288411673       -0.62624304879063       -0.55770062845870
H           -7.41342809655626        0.18966190500389       -2.14503903514950
C           -8.18978178951925       -1.61612566993642       -1.02513229686942
H           -7.79204294300857       -2.63653800860705       -0.94719968219757
C           -9.51162880542888       -1.53813484847409       -0.25479719629325
C           -8.46430712343857       -1.30354703114675       -2.50580211308597
H           -9.89613945321662       -0.52047020025059       -0.28016201380646
H          -10.23516401777162       -2.20363245410321       -0.71710512858556
H           -9.35647493060383       -1.83373074677679        0.78006931275758
O           -7.91786092881379       -0.16735067970758       -2.91640589365580
O           -9.12185135200682       -2.01660666240661       -3.21232634574925
