42
 energy: -62.486133518213 gnorm: 0.000479111381 xtb: 6.7.1 (edcfbbe)
N           -3.05620499957701       -2.17266102932669        1.37419009922154
H           -2.45519954561822       -2.87444844662437        0.95694986752380
H           -3.88691198983770       -2.64769373475846        1.71963481485485
H           -2.80128200954967       -0.61553504253046        2.45694714148307
C           -3.42600521925125       -1.15324912558415        0.39447144087700
H           -2.47860696038572       -0.72240165808326        0.02456992041075
C           -4.17907512093553       -1.68985935114814       -0.81827897453590
C           -4.02055808942344        0.03651806218116        1.18791370888439
H           -5.01853634809532       -2.30480203460220       -0.51136573043707
H           -4.53699173270845       -0.87777468363336       -1.44466926851007
H           -3.50755949552553       -2.30877901490397       -1.41371675035002
O           -3.33443718656004        0.19761492619756        2.33099589390170
N           -4.78065616857261        0.97956857358673        0.87188992418585
H           -7.23208671362979        0.89710623713779       -1.99973023090326
C           -5.93619215477682        1.22220379757327        0.08179471673031
H           -6.61342594161181        1.78549378340466        0.74644588880509
C           -5.54438387817459        2.15073342824682       -1.09246213105775
C           -6.74991769142637        0.01016795138487       -0.36377568225155
H           -4.62575254652935        2.66013039500303       -0.79578455390702
H           -5.29521521907778        1.54938404342138       -1.97367193243765
C           -6.59701498318063        3.21729190369476       -1.43953643024526
O           -7.42473856597008        0.07660917011218       -1.52800561919588
H           -7.60614317257638        2.78939602614304       -1.37281292351480
C           -6.52112381230039        4.37880040449909       -0.45089547050950
C           -6.38116297162278        3.72696091813430       -2.86437856941190
H           -5.56517292982832        4.88891457593728       -0.54326627747393
H           -7.31464587189945        5.09670937202329       -0.64501442381468
H           -6.61940995702955        4.02525689692074        0.57217351257844
H           -6.48667719082850        2.92635036285691       -3.59515700366047
H           -7.10588080066484        4.50119792926352       -3.10422126213270
H           -5.38426523878037        4.15034239799984       -2.96421028492527
N           -6.82884656225585       -0.95169816685453        0.44253184762832
H           -6.08263807581025       -1.68661127184813        1.91099771019722
C           -7.60373064843957       -2.15941595076103        0.29862504674582
H           -8.57117862162220       -1.98441967802135        0.79430706854884
C           -7.86393071028606       -2.70780790273052       -1.10307794837034
C           -6.88676378401746       -3.20770601842685        1.17354441331471
H           -6.94380396181924       -2.73682455091205       -1.68193734860737
H           -8.24540879102870       -3.72123701791958       -1.00633673248591
H           -8.58793304186919       -2.09554662114227       -1.63156400511171
O           -6.06673216350798       -2.66309155353855        2.07118666266049
O           -7.04518558185223       -4.39064148663865        1.06614455753786
