42
 energy: -62.486133520043 gnorm: 0.000479075622 xtb: 6.7.1 (edcfbbe)
N           -2.73437506575329       -1.78358150160753        1.77309785569029
H           -1.86390296961149       -2.29263968980198        1.86453151210417
H           -3.49518251937080       -2.44803836522937        1.89928641244632
H           -3.74444215015267       -0.30291758380058        2.38939573286227
C           -2.84023564034034       -1.15860656453567        0.45674247353001
H           -1.92310138045079       -0.57772806034115        0.29310414984412
C           -3.03470889469029       -2.13804272387768       -0.69955841119550
C           -3.99977627024318       -0.17916121394887        0.53601727617685
H           -3.91540874098324       -2.75096447458952       -0.51888857639054
H           -3.18324277069858       -1.58496568570358       -1.62069083051769
H           -2.16664896833728       -2.78635282745787       -0.80034969240435
O           -4.33085418367243        0.19816933596299        1.78465532036979
N           -4.59434889610807        0.18721376666241       -0.51041203678356
H           -7.46188368920085        0.79781029641473       -2.21694482970821
C           -5.76519215077837        1.04132743389726       -0.40905359023542
H           -5.83015398862554        1.50891153953801        0.58162453404729
C           -5.69704063806651        2.11308916245859       -1.49740525787765
C           -6.92876661926960        0.06421673044633       -0.53319175831568
H           -4.71604345556236        2.58675394043992       -1.42295543018904
H           -5.72512047462677        1.63244059025133       -2.48065231779638
C           -6.78457401550435        3.19201140356493       -1.37698722798283
O           -7.74095254489740        0.10767671682031       -1.60093602991931
H           -7.74511553654320        2.72311401952082       -1.13112620728241
C           -6.44784269190253        4.18007794868882       -0.26190623085312
C           -6.93273374395162        3.93679429439575       -2.70347346495980
H           -5.51728129318411        4.69796364774636       -0.48420525491029
H           -7.23733788039409        4.92130947811867       -0.16183549954177
H           -6.33822191741176        3.67108342288073        0.69214684091102
H           -7.23752005883819        3.26506412881730       -3.50406828481071
H           -7.68062588042304        4.72130104783530       -2.61701614518097
H           -5.98730650255660        4.39563535205798       -2.98441123604496
N           -7.00713466819236       -0.78124572432080        0.39469618869367
H           -6.00559723585385       -1.43644109477392        1.68789592635571
C           -7.86259355729716       -1.93208438284462        0.48699150371177
H           -8.80227658585602       -1.64468390183239        0.97884897804822
C           -8.17772430946010       -2.65926876643670       -0.82022179762976
C           -7.13808743235150       -2.89867584931391        1.45141747232217
H           -7.25715979593900       -2.83772529734082       -1.37262364545108
H           -8.63816486372461       -3.61494073835817       -0.58380946862528
H           -8.85025133094392       -2.07290200890511       -1.43878959477223
O           -6.06697303873988       -2.36816089424207        2.03048858074018
O           -7.50028691364437       -4.02486272102059        1.64950727458319
