42
 energy: -62.486133512824 gnorm: 0.000479836822 xtb: 6.7.1 (edcfbbe)
N           -2.23648955202046       -1.24185949579778        1.68180570584247
H           -1.31724112932402       -1.66711696128269        1.67154107001382
H           -2.86088697591652       -1.87886005766819        2.17054377970765
H           -3.12984600774342        0.40337168666005        2.07867480228391
C           -2.72766037004864       -1.02771645942069        0.32102671722837
H           -1.92488822802906       -0.53504813121928       -0.24294631683205
C           -3.15503603395478       -2.29985498330864       -0.40783585575499
C           -3.87882282642972       -0.03811572867898        0.42011877630330
H           -3.90703851971183       -2.82846358580485        0.17460755697248
H           -3.58712796964413       -2.03544545785088       -1.36687023959100
H           -2.29992957287076       -2.95498873311290       -0.56220889297179
O           -3.86753411197383        0.73024072027080        1.52395076887999
N           -4.74978940998438       -0.00156168015979       -0.48549610243896
H           -7.88451367313554        1.06616879752817       -1.87845934918835
C           -5.88184123578989        0.89795738778535       -0.38860271250971
H           -5.91680571025686        1.38564844943251        0.59663244446841
C           -5.78391632173158        1.96555766860952       -1.48517015305947
C           -7.10053172497034       -0.00499671954406       -0.49529693860601
H           -4.74171786328599        2.28793381370575       -1.53345945206866
H           -6.00720883411416        1.50990953744577       -2.45478650639450
C           -6.67047937450378        3.19549862925945       -1.22777399089416
O           -8.08918261691731        0.27578983271188       -1.36201487339987
H           -7.62907521955915        2.87933094851134       -0.79731110887772
C           -6.00083188238900        4.13672030245603       -0.22810758244886
C           -6.94561871311724        3.93486428108148       -2.53687945445316
H           -5.08275035376857        4.54148001132550       -0.64869859021971
H           -6.66120587826412        4.96555397139999        0.01604054616745
H           -5.75322819684479        3.61484572257267        0.69284856607020
H           -7.48446111253934        3.30641782546661       -3.24430356781324
H           -7.54319815262592        4.82429912691784       -2.35138227724988
H           -6.00995008901268        4.24253441571780       -2.99851935579095
N           -7.10647381440037       -0.99876443625333        0.27568894600244
H           -6.11387020980463       -1.92654192737362        1.34616055401501
C           -8.10514492546696       -2.03343076956458        0.33495211655934
H           -9.05775612845467       -1.63818841554238        0.71017003802142
C           -8.35037524537839       -2.74420567009218       -0.99961215476034
C           -7.57480320383265       -3.06560570133654        1.35092942142403
H           -7.40179494512627       -3.07106403203520       -1.42128455693513
H           -8.98170287834153       -3.61152682906827       -0.82730122042066
H           -8.83776697369862       -2.07330638477493       -1.70125848713932
O           -6.34895175963728       -2.78971462248183        1.78131290704346
O           -8.19874353308846       -4.02977217647172        1.69751024304529
