42
 energy: -62.486133518129 gnorm: 0.000479074797 xtb: 6.7.1 (edcfbbe)
N           -1.73631229115517       -0.88544310979467        1.55614537437190
H           -0.80945296719481       -1.27491896829435        1.43085433113244
H           -2.23823432064169       -1.49801296051121        2.19399375517989
H           -2.61998441073142        0.78837055045862        1.91481618101795
C           -2.45071787242949       -0.82133163725413        0.28061818583967
H           -1.77777175629744       -0.33939914106917       -0.44182994334619
C           -2.89835538991331       -2.17184225769408       -0.27209701688847
C           -3.62262718114307        0.12853105633562        0.47438125168668
H           -3.49224636543611       -2.70530758778156        0.46608843253246
H           -3.50826424075104       -2.01238773850275       -1.15423080036024
H           -2.03420676945379       -2.77884217706740       -0.53438357681528
O           -3.45576769005759        1.02710535554944        1.46590350906142
N           -4.62785057882835        0.04634197556621       -0.27375280359744
H           -7.90832698761736        1.80838385953191        0.59469220738071
C           -5.72992263626435        0.97031515800767       -0.14866628404844
H           -5.55685879652479        1.72160405890077        0.63785949112741
C           -5.86674257819510        1.65185892023592       -1.52721739109482
C           -6.96161577554702        0.17476857457792        0.21205845527655
H           -4.89706264718822        2.10175003781337       -1.75337350913025
H           -6.03444097631059        0.85481077118916       -2.25368200809940
C           -6.95302813542803        2.72120697830384       -1.68190804869389
O           -8.07156352728735        0.85739496770858        0.58011037309108
H           -7.93413904643328        2.28305272790927       -1.46840042646367
C           -6.71558589838457        3.91977874099113       -0.76278259454253
C           -6.97500188125237        3.19428922185092       -3.13598987672968
H           -5.75881846470309        4.38253541320698       -0.99561852823857
H           -7.49663926175279        4.66395074044644       -0.90413541975034
H           -6.70296944551841        3.64250117288207        0.28990014960212
H           -7.17405899669482        2.36286356016924       -3.80762946789730
H           -7.74917395189244        3.94442634854174       -3.28010522952057
H           -6.01737385956276        3.63309268216715       -3.40738932034841
N           -6.89157262707014       -1.07837251287032        0.23492961061710
H           -5.82553524738836       -2.49172766799312        0.21619896765315
C           -7.97093796433983       -1.94213778763109        0.63536202845942
H           -8.50164372688017       -1.56397613187933        1.51870262855955
C           -8.98050453007632       -2.15657808092512       -0.49702454910291
C           -7.32455597979677       -3.29591153635484        0.97846823421223
H           -8.46382541088052       -2.48837148589604       -1.39525098570297
H           -9.69972339256756       -2.91396542362719       -0.19812269819149
H           -9.50148772426752       -1.22642201958070       -0.70998127675810
O           -6.05321053502568       -3.37484108583588        0.60800515424878
O           -7.91807944149795       -4.19116917961954        1.51341837093905
