42
 energy: -62.486133510447 gnorm: 0.000479560349 xtb: 6.7.1 (edcfbbe)
N           -2.09325152393669       -1.02245356408987        1.61922018082099
H           -1.16830326113222       -1.43200200911665        1.56734171811305
H           -2.65392412815994       -1.61644154011093        2.22534976603260
H           -2.99954935220746        0.64012063848546        1.92746822455234
C           -2.70972412204681       -0.96155753892699        0.29369794197601
H           -1.97275766328121       -0.51844006056344       -0.38904318926315
C           -3.16659249542053       -2.31016539600463       -0.25812227179835
C           -3.87037805589388        0.01730860105794        0.38973299875121
H           -3.83353762483526       -2.79845988593634        0.44930343797441
H           -3.70668574035758       -2.15281072982801       -1.18515947892050
H           -2.31019084698121       -2.95611262545121       -0.44117189393017
O           -3.78676227148478        0.89610969188868        1.40515111296582
N           -4.80746616293046       -0.04593081870480       -0.44534628269246
H           -8.04660799760448        1.15419274505572       -1.66771028317195
C           -5.93753157138819        0.85484591038784       -0.36420951044247
H           -5.96572193295686        1.36690626636842        0.60985588825620
C           -5.84710836429684        1.90041095940391       -1.48600948968834
C           -7.16527973062645       -0.03618199197865       -0.44713990923828
H           -4.79266553386808        2.15370221478602       -1.61315625808972
H           -6.16890214390776        1.44815425146267       -2.42895955325992
C           -6.63061609541135        3.19027381557667       -1.19075787554720
O           -8.21841701877028        0.32498231293043       -1.20319628667499
H           -7.57305212404190        2.94585706467508       -0.68380197219758
C           -5.82657296666358        4.09960686097051       -0.26322088163845
C           -6.95514485060937        3.92437253426605       -2.49137036578091
H           -4.92317737778366        4.44195788101295       -0.76347688279089
H           -6.41295508200621        4.97040306179479        0.02062183724024
H           -5.53533214200654        3.57268934394840        0.64203737017377
H           -7.58223381868232        3.31959509253990       -3.14452768275427
H           -7.48087539053274        4.85289152398945       -2.28182740967922
H           -6.03862062512352        4.16419142158750       -3.02583907102558
N           -7.13163291173866       -1.08496971331238        0.24552126697482
H           -6.11378072816637       -2.10324554907229        1.21075806307432
C           -8.15542469767893       -2.09571280540479        0.30227057235698
H           -9.09145271345072       -1.69293528772997        0.70928088580593
C           -8.44167404824941       -2.75178706648763       -1.05225035833220
C           -7.62459080083774       -3.17438394783262        1.26697294055565
H           -7.50976442857704       -3.09290616024093       -1.49890038033777
H           -9.09898467168039       -3.60387674555309       -0.90328742588149
H           -8.91611128236145       -2.03969586393615       -1.72179879997158
O           -6.36840347660344       -2.96283347513514        1.64128641485203
O           -8.27443349728315       -4.11769523899667        1.62334808655897
