42
 energy: -62.486133506113 gnorm: 0.000480904932 xtb: 6.7.1 (edcfbbe)
N           -1.74481317990386       -1.47450390083284        1.16505762109032
H           -1.32474338683880       -0.65913073176568        1.59977305680614
H           -1.01716767472211       -2.16740179366702        1.03409396715391
H           -3.61166525241771       -1.37201664060976        1.81077074047110
C           -2.35805086403996       -1.11887003836021       -0.11250170685410
H           -1.74250963813873       -0.45732607844043       -0.73857338137585
C           -2.68446932291542       -2.39359968881007       -0.89363781949297
C           -3.66109094842723       -0.40968688550377        0.20434451561065
H           -3.30892721820577       -3.05078041201066       -0.29186455852831
H           -3.21422090220954       -2.14220501597833       -1.80764005609673
H           -1.76951306045004       -2.92209066699691       -1.15272701911275
O           -4.24196418280570       -0.78112534126795        1.35226525900305
N           -4.11779257759098        0.44378943428144       -0.60172989193534
H           -5.71420166534980       -0.08663636504798       -2.41114880880507
C           -5.41724642016300        1.04828082866092       -0.34594618152980
H           -5.52374371869883        1.31121273248554        0.71250066705593
C           -5.57074274090263        2.28727045128159       -1.23415754089084
C           -6.44860137645120       -0.00830677270591       -0.65857909942005
H           -4.89228187514648        3.05580683810030       -0.86004987755997
H           -5.24207429607719        2.03780237374700       -2.24686495135718
C           -7.00008400005123        2.83879529012549       -1.28182349487706
O           -6.42762072117457       -0.50695957171632       -1.91205226401009
H           -7.66590196696011        2.06060279367245       -1.67262235831971
C           -7.49590139663395        3.23871079074919        0.10556173712205
C           -7.05185894447812        4.03705826381575       -2.22814207852137
H           -6.80446993894661        3.93923486265030        0.56910777198937
H           -8.46945121744691        3.71734551477716        0.03065334304752
H           -7.59669809778800        2.36734521295692        0.74660912189501
H           -6.71425155686029        3.76046401184315       -3.22467326337895
H           -8.06768139690997        4.41667450832781       -2.30513979673646
H           -6.41387900836624        4.83740356190653       -1.85935294460137
N           -7.22064103569140       -0.41716085572527        0.24586138213235
H           -7.89840242447201       -0.28879144680544        1.92245581833007
C           -8.17817762567810       -1.47587487084680        0.01646022770270
H           -8.74830440060726       -1.31869616765219       -0.90753615792250
C           -7.49730132554612       -2.84813034000292       -0.04660932377114
C           -9.14724089326216       -1.47246468429598        1.20788976408445
H           -6.88636067216422       -2.99563903670707        0.84197396469691
H           -8.25556586858311       -3.62465648494039       -0.09329278340521
H           -6.86361748116802       -2.90674549227905       -0.92808280849395
O           -8.73678270885491       -0.71604455960934        2.21806043719306
O          -10.16017826703062       -2.11497943255048        1.23024382617115
