42
 energy: -62.486133505938 gnorm: 0.000480993490 xtb: 6.7.1 (edcfbbe)
N           -0.79709494233251       -0.14588590894126       -1.04022791237172
H           -0.06779940328149       -0.68138001985727       -1.49471743022406
H           -0.43375189157377        0.17157105815931       -0.14567175673018
H           -2.00607508040729        1.24811591987890       -1.44510925172013
C           -1.99658694866949       -0.95447885617079       -0.83188107191814
H           -2.18869257181787       -1.49632151359530       -1.76756175082687
C           -1.88921191748209       -1.95440998235085        0.31780476014891
C           -3.16623160742470        0.01628930874491       -0.64624958220871
H           -1.70708143065140       -1.43005783404321        1.25344919062058
H           -2.81276422850888       -2.51439520729178        0.41707106992767
H           -1.07203889657413       -2.64966025328335        0.13632819626242
O           -2.93492472769420        1.24213174494416       -1.12809106426467
N           -4.19694310943548       -0.40998361548037       -0.06804989151446
H           -5.05611669493398       -1.91103044689518       -0.62114100796135
C           -5.47667845111806        0.23505589685116        0.12899420014516
H           -5.59899222487857        0.33640865731648        1.21503509694793
C           -5.62136506132577        1.61653516740920       -0.53118425192486
C           -6.51440003976173       -0.78030483733943       -0.34367296733704
H           -4.83661864821012        2.25201357129044       -0.11602526895042
H           -5.42342766753826        1.50427569953755       -1.59931810423027
C           -6.96459691396848        2.33077549940356       -0.35957484948389
O           -6.02714240822232       -1.96115342368603       -0.75119919562278
H           -7.72482270391570        1.77599066158085       -0.91269114312457
C           -7.38584410925771        2.43020111902622        1.10367124246257
C           -6.86137829955504        3.72881249539858       -0.96898092509645
H           -6.62037272257482        2.93980571108807        1.68594653186045
H           -8.31046616553568        2.99620726496105        1.18765807681851
H           -7.55015085097021        1.44401292583148        1.52922042579257
H           -6.55762284097908        3.67329956718867       -2.01163041395958
H           -7.82311240778697        4.23330848630353       -0.91954026210918
H           -6.13026780996231        4.32882779236280       -0.43064935319721
N           -7.74466208233024       -0.50425963254373       -0.32199602057423
H           -9.19171869365560        0.61111866773854        0.03779714013403
C           -8.72812153826053       -1.47336971412483       -0.75897794492794
H           -8.45288109403305       -1.92787961331250       -1.71844512870297
C           -8.93013177129943       -2.58820281819613        0.27549523105371
C          -10.06511052933642       -0.73885091708010       -0.91544712967323
H           -9.18223621643538       -2.15702297527529        1.24265577498219
H           -9.74014566668989       -3.23595989377412       -0.04763662676288
H           -8.01816282441001       -3.17126686095738        0.37312135534709
O          -10.09464757243754        0.44518568757699       -0.31436080090626
O          -11.00580049521864       -1.20609441117042       -1.49528217182063
