42
 energy: -62.486133533485 gnorm: 0.000478335980 xtb: 6.7.1 (edcfbbe)
N           -1.74021489900258       -1.66062197261247        1.15474047937762
H           -1.43417488633835       -0.99300745522043        1.85474614925133
H           -0.96652886295535       -2.28417398175731        0.95853397324646
H           -3.63900483595338       -1.76123681748229        1.55079638094544
C           -2.17693606670115       -0.97393856302642       -0.05870950616644
H           -1.54360544321815       -0.12105209165746       -0.34073316369678
C           -2.22840942999554       -1.96289243602974       -1.22459550712456
C           -3.58225281323962       -0.46062371208878        0.20357575498480
H           -2.89446512290931       -2.78974348972641       -0.98738987177623
H           -2.58850412323008       -1.45949520948663       -2.11686562057014
H           -1.23583486457514       -2.36056207064192       -1.42589304898386
O           -4.25908118147862       -1.11352613923883        1.15639400880949
N           -4.03056142966984        0.50006624386614       -0.47750940505299
H           -5.30796405847503       -0.50759083202329       -2.13389489892392
C           -5.39659474941682        0.95291388499422       -0.26816480554493
H           -5.54624875724674        1.23469453385635        0.77925802502263
C           -5.64244642068976        2.15481728865428       -1.19036436774950
C           -6.35608216030735       -0.16886938396181       -0.58412172155395
H           -4.91510864202433        2.92551106056639       -0.93075461792269
H           -5.43511070451280        1.84734802673337       -2.21888224796080
C           -7.06045619597191        2.72869165820385       -1.11129921607273
O           -6.10865527171317       -0.85715932913938       -1.71773984264168
H           -7.77671425582840        1.92419892838968       -1.31079475044205
C           -7.36025093029323        3.30903276523111        0.26820147004261
C           -7.23132711204454        3.80680520533689       -2.18050427865366
H           -6.62891507664112        4.07272755493616        0.52487658433207
H           -8.34790905750131        3.76333851931804        0.27559305778637
H           -7.34150100181104        2.53524546869190        1.03016512845188
H           -7.04844502882588        3.40181616693413       -3.17340840334215
H           -8.24138993483254        4.20821797381586       -2.15682573350658
H           -6.53327422512933        4.62354644016648       -2.00880687773091
N           -7.32150064843239       -0.40863166425295        0.18541316200849
H           -8.41542392766382        0.11729447145839        1.52198667070123
C           -8.26799038047688       -1.46797630780868       -0.08326724064077
H           -8.57546127004143       -1.48521676274754       -1.13681326876814
C           -7.69580405271899       -2.84021186527449        0.28801664477528
C           -9.50427503228558       -1.20222258921548        0.78861060249858
H           -7.32649344593023       -2.82037566341462        1.31129779768841
H           -8.47672139057534       -3.59054289975516        0.20170607996622
H           -6.87530359482534       -3.09095597708259       -0.37951396239922
O           -9.32601773736766       -0.23027267356381        1.67452013351839
O          -10.52323223045084       -1.82739210697726        0.68735534660815
