42
 energy: -62.486133514326 gnorm: 0.000479399259 xtb: 6.7.1 (edcfbbe)
N           -1.08766861518543       -0.46377923598463       -1.55164134341897
H           -0.30973095483078       -1.07703611464336       -1.75997369802659
H           -0.70715496772221        0.38656350919189       -1.14553471616078
H           -2.62800383697615        0.23893770354575       -2.38820395497260
C           -2.01773709803577       -1.08906726814902       -0.61287052039381
H           -2.16352831753997       -2.12742248563319       -0.93759638971512
C           -1.55768057691038       -1.07897483651846        0.84278704732392
C           -3.36195013928702       -0.37879710554553       -0.77190164057974
H           -1.37398754635831       -0.05729427918507        1.16927403439688
H           -2.33575660575006       -1.50238989602494        1.46857289820505
H           -0.64377897497973       -1.65797989428826        0.95809643822072
O           -3.49478731855163        0.29131078132122       -1.93206994237487
N           -4.21762519898421       -0.50869202241547        0.13975682189871
H           -5.16832556270353       -1.68989578276085       -1.42694570742189
C           -5.52841160377214        0.09570186563446        0.18802003289496
H           -5.77834285997825        0.12846832832160        1.25362589265855
C           -5.57791653560400        1.52776354587569       -0.38542781098215
C           -6.56001119098083       -0.78883925549326       -0.48658612320372
H           -4.73985664679097        2.07336156640048        0.05689034305134
H           -5.41250013300014        1.48024028733223       -1.46299482745260
C           -6.87206752340256        2.30178289408850       -0.12445211129797
O           -6.13306845994740       -1.71449909085127       -1.36309004828895
H           -7.69946836431078        1.76128207838637       -0.59118009353745
C           -7.16649400889547        2.46098879066344        1.36465330956797
C           -6.76849445805946        3.67746562838157       -0.78289904101472
H           -6.33332680905535        2.94856361224715        1.86733574899250
H           -8.05509742816692        3.07168192553117        1.50386985633825
H           -7.34261862721320        1.49877931880160        1.83740553812917
H           -6.57273342934473        3.58261223858896       -1.84843317225006
H           -7.69699431402295        4.22785099299538       -0.65419283430705
H           -5.96215609714110        4.25556567271868       -0.33551423309674
N           -7.77960259682155       -0.58799121137268       -0.23880618118700
H           -9.11072832189323        0.39487223298632        0.54719798866151
C           -8.82436138313134       -1.35063314248100       -0.88506758557546
H           -8.66175873199908       -1.42728181682831       -1.96763866647420
C           -8.94772878253949       -2.76407829668101       -0.30434078091678
C          -10.14800053278623       -0.61359065856848       -0.63319549383188
H           -9.06908512568259       -2.71228324554250        0.77586638135787
H           -9.81500952522776       -3.25445721923727       -0.73746745882185
H           -8.05419124360659       -3.33862738381735       -0.53413358778687
O          -10.05746596543064        0.34649246048921        0.27912269005641
O          -11.17098485458976       -0.89870093375719       -1.19138193988942
