42
 energy: -62.486133509757 gnorm: 0.000479941926 xtb: 6.7.1 (edcfbbe)
N           -0.93340218244616       -0.41480305215049       -0.98855583076103
H           -0.16269126457750       -1.04202873139738       -1.18370872469172
H           -0.61000813638539        0.26152127738576       -0.30210644931333
H           -2.23376956412868        0.61142893101457       -1.92539358766628
C           -2.08364760984944       -1.14578974622239       -0.45801983983752
H           -2.23515551766650       -2.02276774111746       -1.10123119557738
C           -1.93932978598635       -1.60466541829043        0.98980765372919
C           -3.30615195907432       -0.25004969964292       -0.64407465405169
H           -1.75303394179120       -0.74980109214298        1.63660011655131
H           -2.86046606430000       -2.07956542625727        1.30957516238051
H           -1.11553812064325       -2.30908429506031        1.08533114724836
O           -3.16859658893844        0.65709278756261       -1.63517244213088
N           -4.31624750779719       -0.45506950798912        0.07003048503961
H           -5.35076967241299       -0.90079511202159       -2.02498106756154
C           -5.56374148165196        0.26827519151406        0.06198181268217
H           -5.84881824393749        0.34678877488287        1.11583437372616
C           -5.57027778676730        1.66947813131664       -0.57685690286791
C           -6.60238172942218       -0.59678308511657       -0.61842935252995
H           -4.73677795680944        2.23697630872892       -0.15773101891943
H           -5.39796773971293        1.57776816709403       -1.65160576134526
C           -6.87586689421718        2.43940373923464       -0.34651579050604
O           -6.25621127737676       -1.15047711119280       -1.79610236472970
H           -7.71605644500737        1.80276238098198       -0.64187002576268
C           -7.05726664563719        2.83256404339654        1.11740064537883
C           -6.88674960707611        3.69099929398742       -1.22347004325857
H           -6.22334896054744        3.44681217182471        1.45141277497262
H           -7.97366413281572        3.40472999307297        1.23807005756924
H           -7.12281680428747        1.95788592495347        1.75831553773158
H           -6.79759466721192        3.42870358122480       -2.27529114053552
H           -7.81481429423576        4.24055591099461       -1.08706119268361
H           -6.05806388168959        4.34576331315674       -0.96124887900659
N           -7.74248359969119       -0.71606735968726       -0.09884495858368
H           -9.01701096841480       -0.02855192569718        1.00397360520597
C           -8.79782775811561       -1.46964737795710       -0.73755945179319
H           -8.79782878721842       -1.33949421273239       -1.82741588520675
C           -8.68610729906440       -2.96380415038714       -0.41683785468833
C          -10.13003976220918       -0.94977061991092       -0.17653230460528
H           -8.63700961802188       -3.10865232250336        0.66036770617408
H           -9.55753009393595       -3.48116928588425       -0.80818924236023
H           -7.78660100841733       -3.37274378251918       -0.87019408416198
O           -9.98645288338025       -0.13521438544539        0.86204907714640
O          -11.19607301980640       -1.26474023801562       -0.62681504853745
