42
 energy: -62.486133528152 gnorm: 0.000478644536 xtb: 6.7.1 (edcfbbe)
N           -1.18305302752085       -0.65744680140052       -1.37029981898003
H           -0.56789445212668       -1.37179190755993       -1.74036604630799
H           -0.67074258844121       -0.15369344612825       -0.65136410579551
H           -2.37704000100646        0.71595128733907       -1.97047636334109
C           -2.38855481358789       -1.25219883090480       -0.79569238853132
H           -2.77498035371733       -1.97408717626739       -1.52642628871930
C           -2.17389592335353       -1.95722043001637        0.54135590698057
C           -3.44085614015593       -0.14922619988704       -0.69244959840596
H           -1.77118974213499       -1.25882077391986        1.27239200938771
H           -3.12514145798907       -2.32670724196708        0.90767131696037
H           -1.48173897260492       -2.78929253294443        0.42733669664318
O           -3.22294816700649        0.89177725587919       -1.51007383318903
N           -4.39446591539398       -0.31970934714619        0.10407385662698
H           -6.71543768449115       -0.48912136618055        2.18581871320278
C           -5.52363141656870        0.55307575528698        0.32565451353462
H           -5.42085863161861        0.91076150134236        1.36179715906160
C           -5.72287218979188        1.74756846711742       -0.61399421788271
C           -6.72340967599428       -0.37205876691932        0.24503671216074
H           -4.82842111904435        2.36987796895496       -0.60038259416174
H           -5.85208831104350        1.34815540326953       -1.61949805309014
C           -6.94312892807049        2.59967643080150       -0.24529232174261
O           -7.26365462612885       -0.78191302023038        1.44807101942426
H           -7.80226807714180        1.93823745441389       -0.08642310194505
C           -6.70577081678009        3.41441776466256        1.02534831889945
C           -7.27615497655817        3.53654831891186       -1.40428254199322
H           -5.85224629127083        4.07664808546380        0.89419688380816
H           -7.57883956346810        4.02267007318447        1.25055145751682
H           -6.51447454067979        2.77603940234950        1.88509498968148
H           -7.50831497560825        2.96467783935381       -2.29878869311769
H           -8.13648768489115        4.15557325845764       -1.16051787163025
H           -6.43170946134919        4.18804310896916       -1.61927214746615
N           -7.12437199608156       -0.74957880092748       -0.87600417430719
H           -8.99811638873980       -0.70910112571200        0.90385792137464
C           -8.19269953707394       -1.67216043847077       -1.15787335920081
H           -8.13460597288418       -1.86020190916220       -2.23627141866182
C           -8.09379036184909       -3.00834891553492       -0.40901584225110
C           -9.57772529353309       -1.06147865643888       -0.89563121083177
H           -8.22463124598185       -2.87671010372276        0.66276200296492
H           -8.85866196979891       -3.68714487124921       -0.77796281274477
H           -7.11397828253036       -3.44606205183006       -0.58627623655781
O           -9.78189073133821       -0.59205908180411        0.33537525567076
O          -10.43344896157593       -1.02559134701908       -1.73282457441367
