42
 energy: -62.486133515788 gnorm: 0.000479588409 xtb: 6.7.1 (edcfbbe)
N           -0.80442593954519       -0.73427331888829       -0.06105106962191
H            0.05640984348262       -0.80431715682497       -0.58964857504989
H           -0.88877393361327       -1.58074216417124        0.49549955485769
H           -1.74230380278101        0.52483070294003        1.04265131372154
C           -1.95800618535700       -0.61083786895423       -0.95277391269502
H           -1.70130301090566        0.13069608091359       -1.71977784204581
C           -2.38525152004627       -1.90934433715435       -1.63237355576625
C           -3.09633250143559       -0.01210091791095       -0.13972168880966
H           -2.60257813754678       -2.67014244189365       -0.88511013274494
H           -3.28617967370237       -1.73103932427180       -2.20928437369680
H           -1.59829221318554       -2.27351975414755       -2.28952135075645
O           -2.71310454519225        0.63272452864257        0.98187748169171
N           -4.27939169838458       -0.13650463898212       -0.54272248425604
H           -5.41161681129841       -1.21846528983252        1.85920794594506
C           -5.38633765410618        0.48114077371053        0.16050489510536
H           -5.08254346326075        0.84940653055872        1.15325105080243
C           -5.90396566682172        1.64463063845194       -0.69266288532996
C           -6.40979589355087       -0.61740867801662        0.33182737766883
H           -5.08708504043572        2.36070830165320       -0.80767572064832
H           -6.14148981004222        1.24294353151395       -1.67771747366609
C           -7.13024325229073        2.35831386580261       -0.11609379901334
O           -6.21955228261765       -1.44800557147208        1.38323649253612
H           -7.90329196771091        1.61122742093437        0.08534536989073
C           -6.80246561292813        3.09047399705751        1.18365577903030
C           -7.66968115805819        3.34671894434430       -1.14857545910634
H           -5.98999031057681        3.79741501254870        1.02786231003475
H           -7.67238885343706        3.64139950339672        1.53394643287453
H           -6.51008408857694        2.39629321723829        1.96740762511381
H           -7.94107391279084        2.83324645693093       -2.06747582421606
H           -8.55277399888021        3.85283489618802       -0.76585184693988
H           -6.91891810782696        4.09869813907877       -1.38258371083529
N           -7.33996793685282       -0.76632684655096       -0.49876709185877
H           -8.00250775984763       -0.41004600630532       -2.13245830972987
C           -8.30422654390697       -1.83605661866783       -0.40352870699261
H           -7.83192017554208       -2.79502450671697       -0.15594581536763
C           -9.38305576345287       -1.53121496383943        0.64176418249668
C           -8.98096672013887       -1.95399841441469       -1.77905793539263
H           -9.84028156942586       -0.56578807675355        0.43347004622160
H          -10.14785756639755       -2.30159733503719        0.60234832596846
H           -8.94206110524896       -1.50884237717712        1.63522749685719
O           -8.65923021331274       -0.97163043843485       -2.61036335105153
O           -9.74128469720661       -2.83850130969029       -2.05940565876537
