42
 energy: -62.486133504445 gnorm: 0.000481178687 xtb: 6.7.1 (edcfbbe)
N           -2.53081105023787       -2.28654424724599        0.91435294348713
H           -2.92290925718595       -2.49196696383114        1.82776706616366
H           -1.56589680414772       -2.59410779034388        0.90915778136021
H           -4.09082076113801       -2.41068445254745       -0.13055164167684
C           -2.62900257634501       -0.86068559813269        0.61440834233203
H           -2.34598811127618       -0.20661799792378        1.45037152941453
C           -1.75648959683445       -0.52925425126573       -0.59676637418490
C           -4.08748661755496       -0.58169288296734        0.25941440603148
H           -2.03643097198826       -1.15552537959000       -1.44092767369802
H           -1.89373093762137        0.51294633346090       -0.86717396476729
H           -0.70669223485387       -0.69983174383366       -0.36762162822738
O           -4.72586563519229       -1.66399093453960       -0.22102803778413
N           -4.48565108732042        0.60163893008626        0.34829062840386
H           -8.06373670129691        1.95249359650740        0.22120211908782
C           -5.78506076365238        1.17148466374473        0.11785195500960
H           -5.82070268821424        2.05503741268460        0.77052278873923
C           -5.76434817101868        1.62207380799406       -1.36956243780513
C           -7.01438988342444        0.33985181565362        0.40839947278910
H           -4.77622473638858        2.05952041303062       -1.53342125008365
H           -5.82581205602685        0.71416784213756       -1.97453902786711
C           -6.81725279258508        2.62373885239635       -1.85670386948578
O           -8.19695263170570        1.01082301543198        0.38003169023171
H           -7.81789855502857        2.18516263903575       -1.77666119566614
C           -6.76663728217790        3.93979397843091       -1.08041733480525
C           -6.56928619845571        2.90224137648928       -3.34050444905582
H           -5.77396727734733        4.37812226133840       -1.15743066413885
H           -7.48427741716402        4.64621976185398       -1.49212586598213
H           -6.99379139008565        3.81286707358506       -0.02316780035002
H           -6.61424573156295        1.98164582902488       -3.91739802517299
H           -7.32015515763405        3.58630474727430       -3.72910776903448
H           -5.58884209009382        3.35070739905140       -3.48503308538293
N           -6.94638883100291       -0.86065316521227        0.76532135201520
H           -5.97615525937902       -2.42046341448519        1.05700392582145
C           -8.11156519043100       -1.63338986261772        1.11737836375866
H           -8.79484584280612       -1.07624335880520        1.77074222494017
C           -8.87753807827038       -2.09566695177289       -0.12800684552661
C           -7.60804114121247       -2.88113949048163        1.85470193459345
H           -8.20006998764019       -2.60706110855946       -0.80916681965340
H           -9.67159030578420       -2.77606705458674        0.16706011270472
H           -9.30873635357865       -1.23623532854612       -0.63527493724550
O           -6.32625841070115       -3.14265816044149        1.63644092293726
O           -8.31364468774197       -3.56838719582977        2.54110625916855
