42
 energy: -62.486133512949 gnorm: 0.000479700804 xtb: 6.7.1 (edcfbbe)
N           -2.25989880834395       -1.84061833009981        1.40863522335241
H           -2.00296327574946       -1.21563669916341        2.16583130478024
H           -1.48463353566668       -2.47247380796302        1.24777373248638
H           -4.18562415157862       -1.93394295931334        1.58903928813404
C           -2.57575923370258       -1.08541190716674        0.19879766011445
H           -1.88984529133182       -0.25126948259324       -0.00259728461976
C           -2.58895339319099       -2.02780503068305       -1.00599285429114
C           -3.97989718774912       -0.52553646654476        0.37326182566991
H           -3.28128592484349       -2.84872297841236       -0.83112833634491
H           -2.90116871854614       -1.48395563836451       -1.89244932741854
H           -1.59622806672472       -2.43859343876038       -1.17741217890783
O           -4.75977448703611       -1.24487253698721        1.19268904829886
N           -4.27910557591295        0.53292255885220       -0.23372937185590
H           -6.37532271117030        0.33984053087724       -2.43253282751695
C           -5.60314323520230        1.12808976927915       -0.25983592485259
H           -5.82494800140677        1.51372338458574        0.74373298297330
C           -5.56922287777479        2.28657543547428       -1.26179073506121
C           -6.65721111811406        0.08167282491949       -0.55378986739722
H           -4.82256184982223        2.99683779167496       -0.90313298807445
H           -5.20298784166547        1.92141756962799       -2.22694444275796
C           -6.91062671838455        3.00710423087684       -1.44639912558250
O           -6.90116286552240       -0.22177762429471       -1.84882320943262
H           -7.66970727277359        2.28891709724507       -1.77739992002732
C           -7.39337267744564        3.63666106006530       -0.14153802987687
C           -6.76418511262223        4.08051184448207       -2.52445887879305
H           -6.62861585713574        4.29133980782185        0.27076072575543
H           -8.28899271973850        4.22695061303972       -0.32093860471702
H           -7.63537107306367        2.87444669844622        0.59440054244739
H           -6.43787414527128        3.64610692347835       -3.46729135416016
H           -7.71333198262639        4.58353351669673       -2.69218050570933
H           -6.03161118889215        4.82424876635925       -2.21873370007124
N           -7.19220518285258       -0.51818864821809        0.41108577808104
H           -7.03696595929443       -1.00055619117174        2.16350923070520
C           -8.12468913324330       -1.60931850343567        0.26905748652957
H           -9.02301484680397       -1.29749629503999       -0.27698497883226
C           -7.51885210357032       -2.83637384442998       -0.42431926981409
C           -8.51909938313008       -2.03217085318202        1.69318022593788
H           -6.60248683040449       -3.12774784684670        0.08538958157801
H           -8.22852248537177       -3.65795514702820       -0.38123503637472
H           -7.29204403937415       -2.60794748270333       -1.46209964870701
O           -7.69371202376337       -1.57469269295992        2.62475708862761
O           -9.45921234062044       -2.73986187313484        1.93077194601321
