42
 energy: -62.486133511719 gnorm: 0.000480244316 xtb: 6.7.1 (edcfbbe)
N           -2.35267990270080       -0.78782749025149        1.89646816095885
H           -1.38189983587515       -1.07653690754590        1.92275394323622
H           -2.89958883454588       -1.52303991518887        2.33764952488944
H           -3.46768277328122        0.73897436202618        2.25648128145394
C           -2.80523536882855       -0.60817094642750        0.51689819847637
H           -2.06692207212486        0.03270246401734        0.01545778984039
C           -2.97120159227118       -1.90258618500423       -0.27556903727878
C           -4.09773184107239        0.19103463735699        0.57895980842679
H           -3.58844525045176       -2.60724558440554        0.27781692703225
H           -3.45855318860884       -1.68488149545036       -1.21995457508938
H           -2.00116649980970       -2.35828750132848       -0.46432034425348
O           -4.22324240388792        0.96329642718733        1.67633900392290
N           -4.93498553159098        0.10885969660802       -0.35396142682020
H           -8.53369850232575        1.34071274842554       -0.56087505087051
C           -6.15526786353416        0.87591934166919       -0.33110665638456
H           -6.18926415101007        1.56537521432455        0.52888400317444
C           -6.27874587658962        1.67157399151416       -1.64951112051086
C           -7.31022916752467       -0.08343337958455       -0.15149709048009
H           -5.37383088212707        1.48065780686055       -2.22873720604007
H           -7.11616156798854        1.28960708855708       -2.23993673264921
C           -6.43720197192984        3.18358284859344       -1.44705298600327
O           -8.55878929213144        0.40452347059818       -0.32533049596865
H           -7.23782897493268        3.36988642843149       -0.71808822469677
C           -5.14615695774804        3.79644068790768       -0.90954409282018
C           -6.82731121562859        3.84811311764064       -2.76603914832713
H           -4.34802880868020        3.68677797879560       -1.64060705651055
H           -5.28373465688748        4.85599917476334       -0.70543343433495
H           -4.83426422250299        3.30851777509921        0.01046841089124
H           -7.76621778287039        3.44738775773556       -3.14334111046539
H           -6.94347543328323        4.92101421619600       -2.63159819024913
H           -6.05733173921979        3.67783860503152       -3.51507669770292
N           -7.06544039761962       -1.26006095281854        0.20936081012266
H           -5.83630357085427       -2.38246136244056        0.71874470791142
C           -8.05800662212580       -2.26754007082162        0.47986971160588
H           -8.84366217936971       -1.89837531364161        1.15146108135719
C           -8.70895935362464       -2.80471873312051       -0.79836786201255
C           -7.30779525468480       -3.41798184302605        1.17652400224281
H           -7.93973929218439       -3.12656034678084       -1.49743310874021
H           -9.34240458456366       -3.65142055952107       -0.54908452364674
H           -9.30927871698468       -2.02718280664634       -1.26391309572808
O           -5.98976103307812       -3.25504059617029        1.17041940180725
O           -7.85796609069202       -4.36746942675314        1.66075721885720
