42
 energy: -62.486133503014 gnorm: 0.000480896899 xtb: 6.7.1 (edcfbbe)
N           -2.41664349499618       -1.30971072108708       -1.96992451735873
H           -2.59073650159488       -0.72234882022681       -2.77904840198029
H           -2.42961510437306       -2.27405579548300       -2.28185010821915
H           -1.36678399654863       -0.22596375763812       -0.86606328746285
C           -3.44055908267849       -1.08909999224360       -0.94506261669301
H           -4.44590941155178       -0.98391260938310       -1.36802700815138
C           -3.41342082514845       -2.25591160207785        0.04316126482264
C           -3.05651388875773        0.20135246762305       -0.20564309114452
H           -2.40891837862273       -2.37843534178966        0.44369533821656
H           -4.09703788642322       -2.07965845739623        0.86824351854194
H           -3.70909221985731       -3.17697441106362       -0.45609472904250
O           -1.74316841959983        0.44551393968151       -0.25444668723580
N           -3.75766629994633        1.03088933940655        0.42848283521149
H           -5.66236088221893       -0.31703190157049        2.58793815763802
C           -5.16159385065881        1.11535416873615        0.69755538597298
H           -5.21962383092091        1.54311519368139        1.71013915448319
C           -5.76652559838328        2.12771823204654       -0.29492504309765
C           -5.96227187359050       -0.17006151089990        0.69062203666812
H           -5.12169314880542        3.00715077232260       -0.30157001681582
H           -5.73134047726673        1.67441208108450       -1.28639565628903
C           -7.20651572841039        2.53821214104413        0.02999004642660
O           -6.11214758659446       -0.79834403494659        1.88111869080238
H           -7.79190397537918        1.63444577547413        0.23194049106595
C           -7.27221869741237        3.45046010233389        1.25267490069004
C           -7.81756464005072        3.24700439686740       -1.17768143727786
H           -6.68694098814071        4.35126303453329        1.08271797420606
H           -8.30127695584279        3.74246321524840        1.44936218244256
H           -6.88912098425393        2.95602797804415        2.14168224725614
H           -7.82884847117197        2.59184961404247       -2.04562814374447
H           -8.84025174722635        3.54977636580097       -0.96484772620710
H           -7.24111871037453        4.13559737553682       -1.42478094165614
N           -6.41486404394233       -0.64690475296340       -0.38369361248985
H           -6.64105666066873       -0.61047695992108       -2.22370510028238
C           -7.12794797568765       -1.90266774134811       -0.43125059918696
H           -6.69955138122244       -2.65459620436128        0.24221128619126
C           -8.60936738166312       -1.70928742944263       -0.08657840264563
C           -7.04102127848370       -2.40246021646087       -1.87794991941833
H           -9.04545198268265       -0.94264814202686       -0.72465213867481
H           -9.14110056098532       -2.64480323647687       -0.23798778457354
H           -8.70767631806841       -1.40355861190546        0.95277632072058
O           -6.78120835665495       -1.42985050146743       -2.74944001378761
O           -7.20755733556815       -3.54521434106125       -2.19745575977134
