42
 energy: -62.486133515159 gnorm: 0.000479764834 xtb: 6.7.1 (edcfbbe)
N           -2.31738767696815       -1.07446205121243       -0.40196072070949
H           -2.12099078869723       -0.29571151920165       -1.02204893753496
H           -2.08061079355936       -1.93179626185046       -0.88855183325425
H           -2.17244116102194       -0.39194523533065        1.50799548648841
C           -3.72127121391376       -1.08151517410203        0.00882120820452
H           -4.42384204024156       -1.00344378952282       -0.83500903534975
C           -3.99053776140518       -2.36640519218203        0.79274345326447
C           -3.89125924865171        0.10867667322738        0.95655419600129
H           -3.31439609267605       -2.43411091181694        1.64227168277593
H           -5.01115491262737       -2.37360865836304        1.16071602212264
H           -3.83136805087814       -3.23650190361482        0.15770862627630
O           -2.86858034181923        0.22032356647658        1.81279959824580
N           -4.79977588991407        0.97289813632837        1.04298638733764
H           -6.85581336180931        0.79123236995249       -2.07501170816072
C           -5.94447543401990        1.17974955710703        0.20508225070579
H           -6.67723023879126        1.65831055061269        0.87284661343731
C           -5.54785729212105        2.20666285222364       -0.87703207592572
C           -6.66142250015970       -0.04439673821492       -0.34821814024458
H           -4.75085924946019        2.81733858068222       -0.44852454300544
H           -5.11049266980803        1.68694966014389       -1.73721682146108
C           -6.69171445572332        3.13769475857851       -1.31524725795222
O           -7.07627976155939       -0.03886910456202       -1.63349158652765
H           -7.63400373252877        2.57752274033334       -1.37113946413264
C           -6.88038737669689        4.26102584418918       -0.29805462995581
C           -6.39456431988136        3.72681961419196       -2.69421102726171
H           -5.99533016395195        4.89214635723359       -0.26600056795951
H           -7.73397203641488        4.87851694375209       -0.56739620863302
H           -7.04819740668444        3.86000245197447        0.69802574967365
H           -6.31951142376617        2.95021407656548       -3.45420702535396
H           -7.18414876161406        4.41285156395020       -2.99064517300999
H           -5.45594163261009        4.27609134098442       -2.67349366254010
N           -6.91887995189790       -0.99914380890507        0.43345521350821
H           -7.04976305956837       -1.58672911953337        2.15531860252342
C           -7.71974842252857       -2.13653726443350        0.03397240336564
H           -8.70408511331151       -1.78938562587186       -0.31225772014744
C           -7.11591202716708       -3.01222792116491       -1.06674302151999
C           -7.95690100612414       -2.98364181705181        1.29625522159587
H           -6.11538092033422       -3.33298451861742       -0.79006693976371
H           -7.74312315657665       -3.89082391390152       -1.18896694254165
H           -7.07218317238910       -2.46626283108497       -2.00505099615841
O           -7.47671375415747       -2.43840542743610        2.40762625000488
O           -8.52770341587509       -4.03819878852827        1.27402780379740
