42
 energy: -62.486123796344 gnorm: 0.000709067211 xtb: 6.7.1 (edcfbbe)
N           -1.52989393060910       -1.83229524778682        0.87475787002818
H           -0.52392284912695       -1.89812114452673        0.96201970951394
H           -1.86911903435152       -2.73042451298560        0.54213112202667
H           -3.05011413006661       -1.27998718837423        1.90233111572472
C           -1.91454661573933       -0.77295852884379       -0.05528176547692
H           -1.27975994989065        0.09759506890643        0.14943574240141
C           -1.79178925137432       -1.14513030000541       -1.53295192977530
C           -3.33865310333870       -0.36085230901623        0.29265023031594
H           -2.37337544790023       -2.04128611409571       -1.74639949251577
H           -2.16788222558315       -0.32945227296057       -2.14199201051810
H           -0.75243978631548       -1.33554477324188       -1.79205883217792
O           -3.77479840593706       -0.76234399521809        1.49380457341259
N           -4.00172845247064        0.34494873850593       -0.51729258394010
H           -4.90092269406458       -1.29231891397781       -1.37752021959165
C           -5.36469592537344        0.72023231726275       -0.19097047040074
H           -5.44550340426192        1.04224962295112        0.85360454083462
C           -5.73604084931130        1.87651495180571       -1.13666398160354
C           -6.28583182497609       -0.46765916505243       -0.38206516949664
H           -4.98844161440650        2.65774380038163       -0.98492102931940
H           -5.62600927168494        1.51464414234094       -2.16146579763210
C           -7.13474470715277        2.46919646383763       -0.95709195136471
O           -5.79333728261572       -1.51830390508019       -1.06688649212090
H           -7.87273907327293        1.68159230815662       -1.13117978158170
C           -7.34067767381527        3.03126046056625        0.44706229608497
C           -7.35333970691516        3.56847631581214       -1.99597284648100
H           -6.59381961041715        3.79250344293629        0.66418261766920
H           -8.32556704939971        3.48459593217347        0.52694116374494
H           -7.26678254329610        2.24811859123841        1.19639521670429
H           -7.22309270467744        3.18040116065047       -3.00348241022630
H           -8.35971865890476        3.97081807700016       -1.91266063023683
H           -6.64510913157420        4.38096976925031       -1.84664948090354
N           -7.48240773454499       -0.39374345239528        0.00490956620718
H           -8.90510468569172        0.57626819303509        0.64087392111714
C           -8.41531658226777       -1.47505655862835       -0.22041629386357
H           -8.34222492716754       -1.87075111720690       -1.24184426563927
C           -8.19882776072511       -2.62447722083262        0.77039085387416
C           -9.82793396989482       -0.91410003642191       -0.00536473436028
H           -8.22475799211546       -2.24471202510937        1.78984403932626
H           -8.98621906651519       -3.36206013145216        0.64334378752003
H           -7.23300095283455       -3.08982441258771        0.59054519641544
O           -9.84383708020461        0.29514578473733        0.54174195436112
O          -10.82216359869535       -1.52389764408496       -0.28689826415803
