42
 energy: -62.486133516923 gnorm: 0.000479481674 xtb: 6.7.1 (edcfbbe)
N           -1.48482053836280       -0.57570010113857        1.16776881968815
H           -0.61064914639943       -1.04767581784020        0.96886143566266
H           -1.79389568832843       -0.88532455831176        2.08551646836690
H           -2.28870362868823        1.19169474196824        1.07647105530236
C           -2.49848007654469       -0.92067022289124        0.16906049253688
H           -2.03930902342795       -0.77217966252019       -0.81775961091601
C           -3.03698079236855       -2.34506818897905        0.26528897642672
C           -3.60871731464653        0.10954834364899        0.29197095268024
H           -3.51334599358060       -2.50480989371067        1.22931153671478
H           -3.77758853504489       -2.50588204256679       -0.50950198401406
H           -2.22869354272866       -3.06368670342964        0.14505626191225
O           -3.21679534402180        1.30173102092484        0.78903190936174
N           -4.77695982119806       -0.17803207286439       -0.06648397689939
H           -8.08236961232396        1.71018229368219        0.38741443024565
C           -5.83304394728770        0.80374985394775       -0.00016583356747
H           -5.71546513064138        1.46439802330693        0.87357550446110
C           -5.75718062972844        1.64224176330641       -1.29726371863170
C           -7.13633650740409        0.05082265756518        0.12540344255889
H           -4.74078581257293        2.04054604190959       -1.34492069583771
H           -5.88009731492563        0.94811298982400       -2.13171193767604
C           -6.73733266313096        2.80904764321589       -1.46094782455776
O           -8.27055137123771        0.76635822503570        0.31960246723835
H           -7.76483139867520        2.42965999613504       -1.49152096226925
C           -6.59919778301910        3.84009729181390       -0.34050209319017
C           -6.46931889655130        3.48508515650002       -2.80663197366322
H           -5.58037225528016        4.22048573473149       -0.31061257363613
H           -7.27171586550492        4.67746986085661       -0.51467663272240
H           -6.82782425287315        3.42702453298116        0.64075030392405
H           -6.57623114188181        2.77376997113369       -3.62201722756249
H           -7.17102135027661        4.30000834321875       -2.96873082358914
H           -5.46033997689765        3.89049659736244       -2.83426687556488
N           -7.11447047964612       -1.20351401588378        0.13731259768969
H           -6.10395723433976       -2.64886745428235        0.27913467686801
C           -8.27842068388979       -2.03242246766238        0.30625063689456
H           -8.91743662136856       -1.68566764515049        1.12921285972930
C           -9.11938872042894       -2.11105179485798       -0.97194706913856
C           -7.75352960223156       -3.44044333804301        0.64238502406445
H           -8.48973498248335       -2.39933437637392       -1.81114763175017
H           -9.90167904797579       -2.85347738491458       -0.84125287470691
H           -9.56888395931050       -1.14344523603797       -1.18080091962546
O           -6.43750691326894       -3.54904817391511        0.53253563376010
O           -8.47222765829242       -4.34825558962037        0.95988259587610
