42
 energy: -62.486132243686 gnorm: 0.000632947135 xtb: 6.7.1 (edcfbbe)
N           -1.09665160095053       -1.11712981917087        0.82875589764340
H           -0.10627959858046       -1.19714699149991        0.63450318282753
H           -1.43411922068281       -2.04059158837691        1.08577238444289
H           -2.31333259928019       -0.00036143548215        1.82992225939129
C           -1.82499324899248       -0.62644040161635       -0.33911816917767
H           -1.27226753910396        0.23870928553063       -0.72821907881790
C           -2.00448766675574       -1.65019728108031       -1.45975350190840
C           -3.16190485298850       -0.09650620661694        0.16159471348536
H           -2.55375107042094       -2.51664218023656       -1.09534594424368
H           -2.55852712533767       -1.20215590591502       -2.27798873412635
H           -1.03499526230942       -1.97997475333538       -1.82772101073907
O           -3.18368041243119        0.24590491046273        1.45628307534698
N           -4.12349823711262        0.02700381822030       -0.64282405976027
H           -5.01121058291440       -1.49583852927316       -1.31145196942038
C           -5.41849825508553        0.51165807824664       -0.20598747189066
H           -5.42558080288739        0.77923553206877        0.85654541147298
C           -5.73342818240722        1.75227661895250       -1.06337149817514
C           -6.41171934320394       -0.61165167214715       -0.43309453826938
H           -4.94344121456531        2.48113665187152       -0.86551237912766
H           -5.65300788655314        1.45611610392596       -2.11184864408003
C           -7.09423854081333        2.41020396413454       -0.82825039435098
O           -5.93565094487720       -1.69736264753947       -1.06370423946946
H           -7.87616830726716        1.69147366195548       -1.08552130557237
C           -7.27830155773157        2.84008476100052        0.62445234554135
C           -7.23164763563064        3.61915735145293       -1.75300208973852
H           -6.48878085030929        3.52854473556922        0.91970179986633
H           -8.23454835677931        3.34265229312508        0.74678467897538
H           -7.25760471184454        1.98184431532863        1.29014184411746
H           -7.11459220621207        3.32568897619758       -2.79353513090134
H           -8.21183517453157        4.07381042148280       -1.63451695232692
H           -6.47606621165500        4.36685766443296       -1.51969786791051
N           -7.61805209683633       -0.46651068704948       -0.09629242964467
H           -9.01081578238448        0.56866655167938        0.50632791991116
C           -8.59520852946896       -1.50469684419374       -0.34068777884159
H           -8.51413247156598       -1.90693711862944       -1.35874375822802
C           -8.46248985409092       -2.66154681590152        0.65671980182235
C           -9.98499830798528       -0.87786011671854       -0.16337797172547
H           -8.49782584189164       -2.27936461117343        1.67517874771002
H           -9.28234023224127       -3.35882080291072        0.50891311574145
H           -7.51727856540911       -3.17583960068231        0.50255809318652
O           -9.95876738045669        0.33121111990278        0.38406911520021
O          -10.99947299691412       -1.44068664227114       -0.46972245046542
