42
 energy: -62.486133511335 gnorm: 0.000480220378 xtb: 6.7.1 (edcfbbe)
N           -1.27191351885618       -0.88410413862871       -1.14952457084462
H           -0.58816495062620       -1.62151911949747       -1.26730618912548
H           -0.79276097076762       -0.08489682333730       -0.74333223050213
H           -2.62298620973437       -0.03911889799294       -2.15499814347925
C           -2.35955203323806       -1.31049139379451       -0.26822987729805
H           -2.64946765940179       -2.32494860181263       -0.57022305865993
C           -2.01607184089581       -1.30565662590807        1.21839764009862
C           -3.55440193242972       -0.41151200523012       -0.56368981935607
H           -1.69082331828555       -0.31309181082479        1.52431313461330
H           -2.89963142349139       -1.56716029800884        1.79034284612868
H           -1.22226931394442       -2.01942646531140        1.42881427347626
O           -3.50615657439251        0.17660119288189       -1.78594054935030
N           -4.49273983069536       -0.34761744841361        0.26459527982212
H           -5.63001549840301       -0.18613459879233       -2.16626059505760
C           -5.66989296155841        0.48607046120592        0.13809913167351
H           -6.02522744707381        0.60510286782885        1.16739027195077
C           -5.48114302324373        1.87082484682117       -0.49496689424701
C           -6.70805912304869       -0.33562565294172       -0.59273207189410
H           -4.73503004667301        2.40971927162330        0.09403335143153
H           -5.08830170583335        1.77644604015647       -1.50934126473582
C           -6.78037099464151        2.68436300150748       -0.54968538585567
O           -6.46991873354313       -0.58598826163900       -1.89472701566623
H           -7.53792731550631        2.09840244265664       -1.08282293129149
C           -7.31670967184757        3.00993453056241        0.84195797908405
C           -6.53092339863812        3.97558503779327       -1.32856380383170
H           -6.55569843746292        3.51323813973125        1.43489798543668
H           -8.17891072404137        3.66782176521373        0.76267203978109
H           -7.62970942890569        2.10994407424385        1.36357816217890
H           -6.17684400779615        3.76119873014943       -2.33474047751376
H           -7.44700798151583        4.55573387575476       -1.40650620244768
H           -5.78280881878635        4.58290342223938       -0.82305351491504
N           -7.70030138632873       -0.78803664689548        0.03548795582910
H           -8.81625421589316       -0.72499021794199        1.46795441216486
C           -8.69856653393368       -1.60853778689287       -0.61434230080988
H           -8.95412028121430       -1.23017417502690       -1.61226845684157
C           -8.23317990584472       -3.06335739159650       -0.74188005148946
C           -9.95665251365704       -1.57703694764049        0.26522164406658
H           -7.93016711383956       -3.44199319376782        0.23215824854652
H           -9.05035945064538       -3.66903687685159       -1.12340731502269
H           -7.38833385394236       -3.12298344289176       -1.42341715320662
O           -9.75483913824755       -1.02544464680775        1.45595177356996
O          -11.01197797463656       -2.02703200738451       -0.08497115765452
