42
 energy: -62.486133514191 gnorm: 0.000479828602 xtb: 6.7.1 (edcfbbe)
N           -1.73380029717072       -0.56567974454363        1.27897015651645
H           -0.83193367656593       -1.00751561755345        1.14648463813796
H           -2.10782085594399       -0.90027751439839        2.16320060718865
H           -2.58874685870210        1.16903236178432        1.18292287424863
C           -2.65155540574498       -0.92147779565272        0.19582262060502
H           -2.11513500000434       -0.75971966239339       -0.74867797174634
C           -3.17409458289878       -2.35509829248112        0.24107500416586
C           -3.79055499419742        0.08467531436518        0.23167969190646
H           -3.66965888693017       -2.54650004944468        1.19007273101555
H           -3.89761195304155       -2.49784358819844       -0.55357431827283
H           -2.35611033624031       -3.06211849223327        0.11873380730692
O           -3.48859676859944        1.26302763933199        0.81077128395975
N           -4.90769104274100       -0.21971416003178       -0.25533862990620
H           -8.07785530227220        1.24715293264859       -1.52852901311156
C           -6.00276251535331        0.72533165931644       -0.25287217456657
H           -6.06668635123821        1.22338499418855        0.72739873291261
C           -5.82089224565233        1.80053462143273       -1.34049937310002
C           -7.26167945492847       -0.10451943149519       -0.43227789757419
H           -4.75184719245167        1.99683546366567       -1.43763136853195
H           -6.15163220023368        1.39805676160963       -2.30293183035150
C           -6.52950074669779        3.12812445326627       -1.01974845254348
O           -8.29279133277050        0.38489762249302       -1.15106749920961
H           -7.47370672199747        2.93066685941845       -0.49537896383752
C           -5.65748447780376        3.98086282657019       -0.09988421794685
C           -6.84024819725478        3.89346104684893       -2.30571626275114
H           -4.76170351601049        4.30348263415809       -0.62603814901588
H           -6.19850183426515        4.86389156150779        0.23222781884746
H           -5.34886659489753        3.41436874978600        0.77486645072566
H           -7.51520789747038        3.33292396387264       -2.95090463115980
H           -7.30757756265451        4.84788779084352       -2.07478413089542
H           -5.92359303755698        4.08741490701023       -2.85848423923458
N           -7.29146036338002       -1.21568326105407        0.15263314472882
H           -6.34223536508267       -2.41191381305323        1.02242611335697
C           -8.38342395884686       -2.15321938655256        0.11389487251512
H           -9.29858932295725       -1.71560747723833        0.53271430152673
C           -8.68648958841205       -2.68385233893501       -1.29118821171794
C           -7.95429663511209       -3.33723954211044        1.00221617604231
H           -7.77276250031078       -3.05830668702643       -1.74832035606148
H           -9.40625141883147       -3.49437494617248       -1.21727866916917
H           -9.09526420960700       -1.89128903932663       -1.91186986512836
O           -6.68935702132325       -3.26561472827559        1.39260467993356
O           -8.69021307242997       -4.24047449138255        1.29121580766886
