42
 energy: -62.486133526510 gnorm: 0.000478525531 xtb: 6.7.1 (edcfbbe)
N           -2.80835023590152       -2.47473669680887        1.14243632785985
H           -3.10065590541945       -2.39155734029260        2.11083072933036
H           -1.89395556783210       -2.90992114596823        1.12546933564161
H           -4.50851392251830       -2.63685654196509        0.31245134936803
C           -2.77877234279949       -1.16697992147920        0.49299496003463
H           -2.34147137422641       -0.37081847578401        1.11099187204650
C           -2.00493973166952       -1.26032838006946       -0.82207962457746
C           -4.22595152112650       -0.79271994637633        0.18735147848184
H           -2.43330397381416       -2.03589558967499       -1.45327191153746
H           -2.05830195693328       -0.30875187562741       -1.34210193849916
H           -0.96096025646178       -1.50088620515786       -0.63220834879399
O           -5.03772909435683       -1.85189377654167        0.05080701515097
N           -4.49471384568643        0.42325447252458        0.04027015415776
H           -7.29196351528371        0.65313690642699       -2.13049297444128
C           -5.77522396241393        1.04786465081617       -0.19113113798178
H           -5.94820089747665        1.64197320537060        0.71710453885938
C           -5.59826795228332        2.01608256189831       -1.37118180154911
C           -6.97145720843256        0.11388225594307       -0.31489142396342
H           -4.62256718078366        2.48744177377715       -1.24203565417482
H           -5.54022864631546        1.44699168197214       -2.30583193002872
C           -6.67739189836679        3.10642537177020       -1.45999238358815
O           -7.67377318779505        0.06826910194932       -1.46386389823998
H           -7.66243253478710        2.67186901668785       -1.25215837738018
C           -6.42382813947172        4.20503197653745       -0.43016967044432
C           -6.69975267864488        3.70746045266434       -2.86522176511312
H           -5.47077598600529        4.69213169621921       -0.62413109431595
H           -7.20923078599680        4.95571314043482       -0.47710511314687
H           -6.40297945180328        3.79955925887252        0.57805110671725
H           -6.94163089975875        2.95603960852443       -3.61501224020612
H           -7.44363094731155        4.49794534793573       -2.92782955731796
H           -5.72827561279354        4.13235912941649       -3.10830151608837
N           -7.23551568771149       -0.59178325995736        0.69275557294065
H           -6.49077951531744       -1.28170058618183        2.12006859527559
C           -8.26857013500967       -1.59160336152553        0.78601991940604
H           -9.24480248167867       -1.10580032096395        0.91392748343432
C           -8.34567331135794       -2.57221761162626       -0.38758014167721
C           -7.97345646651167       -2.38897594669861        2.07212802485893
H           -7.34835555315654       -2.94251338123215       -0.61407416772453
H           -8.98384247127461       -3.40544611078496       -0.10588190767989
H           -8.75139709573237       -2.08585084891967       -1.26964275857581
O           -6.84939572935778       -2.02191293164249        2.67394906344133
O           -8.68517161787195       -3.26630703988477        2.47751894866826
