42
 energy: -62.486133530469 gnorm: 0.000478008526 xtb: 6.7.1 (edcfbbe)
N           -1.78663884963127       -0.79554956424279       -2.04019252136251
H           -1.15423899461629       -1.50891170676765       -2.38094481332226
H           -1.22387197833727       -0.01748413925539       -1.70794996531266
H           -3.41124323228045        0.09186304486514       -2.58187773387557
C           -2.61606219358575       -1.30856450509952       -0.95031177065431
H           -3.01585208049835       -2.27773628693246       -1.27354690700945
C           -1.88571998317570       -1.48348379887733        0.37871567045376
C           -3.82222542006077       -0.38462787863137       -0.81602392219563
H           -1.45857913284768       -0.53505356711793        0.69945003762231
H           -2.59368195954962       -1.81248894604113        1.13161092531141
H           -1.08798138756003       -2.21756135643557        0.28282196540788
O           -4.10192068197295        0.31527453156065       -1.92525421118054
N           -4.45176469908636       -0.38227893630715        0.27070867176713
H           -7.91015239682865        0.52133433604196        1.39958517381121
C           -5.65319702449149        0.36940715663390        0.52675850340937
H           -5.69427898511498        0.45682775928207        1.62297899806876
C           -5.68584623814337        1.77887735796245       -0.10402693044903
C           -6.84474876489880       -0.44950305608605        0.08643153070162
H           -4.70909347400657        2.23100071343896        0.08484533343944
H           -5.79293464784240        1.66129418022638       -1.18245268923912
C           -6.77332460123542        2.73427553922251        0.40193108593401
O           -8.04226574813628       -0.14058426329640        0.71022355805115
H           -7.76220481556592        2.30102866332839        0.21379819086463
C           -6.63144278060091        3.04973726681020        1.89124293195634
C           -6.69289921432484        4.03384760204872       -0.40028001321069
H           -5.65446202471690        3.48580501929004        2.08829697768190
H           -7.39159292946918        3.76574858505698        2.19686870679926
H           -6.73514202130151        2.16591426252306        2.51862225705412
H           -6.81935016238069        3.83634949788077       -1.46170001392109
H           -7.47085259854018        4.72554871523442       -0.08493662601719
H           -5.72722453996206        4.51219497465776       -0.25231015038925
N           -6.70800670088625       -1.34553633669877       -0.77181523504822
H           -9.04751277903389       -0.27639140017231       -0.80202447569891
C           -7.72144697032838       -2.22681465723910       -1.28761925726166
H           -7.18239990415364       -2.96357046454751       -1.89436131313100
C           -8.53712628263537       -2.96191912490429       -0.21464835020422
C           -8.69447243068242       -1.50691752124169       -2.23370586697275
H           -9.13958726026172       -2.27221106516222        0.37233373259295
H           -9.19326285842133       -3.68504646311111       -0.69286080047174
H           -7.85940556091240       -3.48618438040842        0.45536456316790
O           -9.31611149318785       -0.44364272139980       -1.72478948435793
O           -8.90606546120002       -1.88629303555099       -3.35002059867436
