42
 energy: -62.486133506907 gnorm: 0.000480958559 xtb: 6.7.1 (edcfbbe)
N           -2.11574571571368       -1.10267436832517       -0.67027333641799
H           -1.90907570345395       -0.37654967505085       -1.34805073478722
H           -1.93017159414346       -2.00018418753904       -1.10313824487604
H           -1.81520551138389       -0.31342289422257        1.10933672955122
C           -3.50153843329357       -1.02178967783763       -0.21321981743863
H           -4.22346757877216       -0.91140357792086       -1.03447027587752
C           -3.83071648366895       -2.27750008268788        0.59592513321114
C           -3.58744631982760        0.16360719707070        0.75403510169159
H           -3.09199789005528       -2.41289583416203        1.38311336123847
H           -4.81068265788266       -2.17407371154696        1.05271968189226
H           -3.82339026287168       -3.15656723434413       -0.04571084158723
O           -2.47803112228461        0.29885850650919        1.48738728316200
N           -4.54086341945279        0.94482427583515        0.99991725473591
H           -6.21399392225153        0.56397185341327       -2.11134574894828
C           -5.76276757799920        1.15076926281659        0.27480156654924
H           -6.45239797831858        1.53944205060716        1.03660986009410
C           -5.50580179454559        2.26774450590397       -0.75264596996868
C           -6.46694604555057       -0.06784336010474       -0.30806547229295
H           -4.87818716544726        3.00813880964716       -0.25345815981292
H           -4.90862204902308        1.87472022790884       -1.58466124326845
C           -6.77926947898629        2.95771770400911       -1.26760917100143
O           -6.56094605210139       -0.21105961285399       -1.65068467273884
H           -7.56194964960339        2.21069671209116       -1.44729759243103
C           -7.30893299405874        3.95132316512074       -0.23653210510536
C           -6.48613179128457        3.67975332643721       -2.58287957768264
H           -6.57779230846187        4.73677123194671       -0.05947230323539
H           -8.22787674039098        4.41079871495063       -0.59263436988930
H           -7.51939840351871        3.45930933151293        0.70923769585968
H           -6.17066121802166        2.98417733431481       -3.35919558933431
H           -7.37418088766758        4.19775360591593       -2.93614004102408
H           -5.69654249728825        4.41412582966586       -2.44012350177286
N           -6.99690341624893       -0.89067994684902        0.48603112922177
H           -7.51448939845736       -1.30919596881012        2.18488725234322
C           -7.82298125975988       -1.98480037437768        0.02299942732467
H           -8.56545697128961       -1.61549283952546       -0.69757712675079
C           -7.06115086734691       -3.13933405473428       -0.63496947050188
C           -8.57193495470227       -2.53515290024179        1.24822869424512
H           -6.36890655630718       -3.58998007742416        0.07133814187507
H           -7.77793180931798       -3.89342706243261       -0.94739921307751
H           -6.51352607191615       -2.78149835076954       -1.50281649059005
O           -8.19244059196725       -1.99168427038669        2.39729423957837
O           -9.40973910159645       -3.38936071562455        1.16538860412986
