42
 energy: -62.486133510943 gnorm: 0.000480338257 xtb: 6.7.1 (edcfbbe)
N           -2.79696886664132       -1.13055519921337        1.03993578124803
H           -2.02298649581847       -1.52996057770958        0.52200368209997
H           -3.29694428268302       -1.89432148152676        1.49008462575959
H           -3.13057878765816        0.18170785168454        2.23758822728411
C           -3.70927664074864       -0.40355333041186        0.15323462393091
H           -3.09183030201359        0.29903717902532       -0.42909745135297
C           -4.41878529821040       -1.34882643167894       -0.81532067211861
C           -4.56041868519093        0.51473811095914        1.07287501808628
H           -4.94821134990009       -2.12327209766299       -0.26695545715497
H           -5.12142343650922       -0.83640086969706       -1.46251151412902
H           -3.67026790611737       -1.83177994009171       -1.44488247857213
O           -3.92750584844011        0.75986867807602        2.22375734153844
N           -5.63277496453113        1.15166514134666        0.90964483128112
H           -8.26309863846792        0.37126216411936       -1.76448120008592
C           -6.61010322150974        1.11074297911317       -0.12980823490402
H           -7.41396343157014        1.78339599952740        0.21529572916691
C           -6.08538987748370        1.65912386889326       -1.47863761446386
C           -7.27321199272453       -0.25596008476615       -0.23635330014992
H           -5.03081308233901        1.39815202595037       -1.57762376324400
H           -6.61462388113624        1.20239440811587       -2.32162054423903
C           -6.21778059576630        3.18328687497630       -1.58672319576706
O           -8.16447997927386       -0.43287401854024       -1.23837000714049
H           -7.25779543452709        3.46008463978810       -1.37467870605538
C           -5.31177509797316        3.87858732316818       -0.57517025252423
C           -5.87889083805007        3.63711753569038       -3.00588968352883
H           -4.26731041972281        3.69091541609774       -0.81633454253601
H           -5.47930826976069        4.95285825015756       -0.59124030432962
H           -5.49954485155260        3.50661227507436        0.42827865225917
H           -6.54702289720225        3.18184198283938       -3.73467643368677
H           -5.97082531829469        4.71706960712976       -3.08799871462776
H           -4.85699693874032        3.36188057576523       -3.25818079106454
N           -7.06582954796161       -1.08016882252779        0.68632530592548
H           -5.92115865444637       -1.45310991012926        2.05718362807366
C           -7.59904520891623       -2.40781414155119        0.83297891461227
H           -8.49539735405937       -2.33989225237540        1.46695323009172
C           -7.94104565525639       -3.18622378582648       -0.43588501914687
C           -6.55396142810943       -3.17653047692089        1.67081563789617
H           -7.10749993821250       -3.15218410528609       -1.13488675851492
H           -8.12636943585942       -4.22249406590978       -0.16460418521443
H           -8.82072412333685       -2.77289336668382       -0.92028666773324
O           -5.69035091560021       -2.38291837120578        2.29914385771356
O           -6.51389634361869       -4.37252660614904        1.74515303925319
