42
 energy: -62.486133516968 gnorm: 0.000479541870 xtb: 6.7.1 (edcfbbe)
N           -2.80600478792666       -1.71999490402730        1.88214374652923
H           -1.90748268685205       -2.17073700570248        2.00482074112064
H           -3.52388359580934       -2.43504792454741        1.98090743342404
H           -3.88883646287117       -0.27900112224745        2.46595671293119
C           -2.90577445049465       -1.10426872667761        0.55992143577766
H           -2.00551736909018       -0.49381470398919        0.41116210402310
C           -3.04451931735655       -2.09543806041769       -0.59408292839020
C           -4.09627438961094       -0.15946323811524        0.60801187722664
H           -3.90577046105111       -2.73815603297194       -0.42628501916046
H           -3.19563987263995       -1.55195797493135       -1.52029437902000
H           -2.15213827237269       -2.71289222235702       -0.67522860337045
O           -4.47109439053630        0.20934291855253        1.84633729516913
N           -4.66493091571217        0.19775045800731       -0.45585726940828
H           -8.04203635032899        1.23523771113732       -1.55338209081631
C           -5.85218962817605        1.02216084036817       -0.39410408701375
H           -5.90419964311712        1.57232320629522        0.55812114549978
C           -5.83760451836405        2.00944132916714       -1.56911835632995
C           -7.03668709214692        0.06592885234273       -0.41234089905347
H           -4.79345037169334        2.25914065185746       -1.76494194332677
H           -6.20567791305581        1.50926282514146       -2.46964058480794
C           -6.61801995687681        3.30709644949477       -1.30275204506946
O           -8.15014406540284        0.39349809065752       -1.09154971690715
H           -7.54923682232384        3.08069530854357       -0.76649149489424
C           -5.79978036614729        4.25542802713511       -0.42824882102649
C           -6.97382198148749        3.99090583596006       -2.62235074410315
H           -4.89581721783130        4.56216450368254       -0.94976955304055
H           -6.37680394626506        5.14547728749460       -0.18794054788840
H           -5.51023798869698        3.77546283415177        0.50332679618315
H           -7.60439862262709        3.35531634522234       -3.24180083115393
H           -7.50702301294761        4.92043243619350       -2.43720993604711
H           -6.06947945116983        4.22127041225715       -3.18097020016534
N           -6.90825043595587       -0.99701628561648        0.24652913040742
H           -5.85825892837162       -1.85561410071263        1.30067757975954
C           -7.87074320859510       -2.06033481204981        0.36202608997639
H           -8.78494049787963       -1.71137909126593        0.86044990552716
C           -8.24693319007383       -2.70346576106711       -0.97483385714947
C           -7.20994689329505       -3.11975889454073        1.26799036646975
H           -7.34473606615011       -2.97258197005160       -1.52076547218810
H           -8.82825143211841       -3.60124331690071       -0.78386262425325
H           -8.83118988500446       -2.01168134522654       -1.57518156286804
O           -5.99957435529608       -2.76390066677940        1.68625742100748
O           -7.72889047740777       -4.16261406669030        1.55329911224043
