42
 energy: -62.486133509854 gnorm: 0.000479821112 xtb: 6.7.1 (edcfbbe)
N           -2.12659887584339       -1.41063626459120        1.43874805350114
H           -1.58734600192199       -0.58814890198694        1.68840987904380
H           -1.49897053813947       -2.20595467383850        1.42840431134826
H           -3.91327986318174       -0.99626593804219        2.11409325913202
C           -2.76691057966956       -1.23616116680862        0.13746692367612
H           -2.12510103038746       -0.76613096263232       -0.62069866525983
C           -3.25238921207426       -2.59067298274092       -0.38265644942837
C           -3.98763049960988       -0.36164948436533        0.35294770252024
H           -3.90007414544193       -3.06183643776085        0.35401793208275
H           -3.80701906976807       -2.44879291014354       -1.30575096273073
H           -2.40730130347256       -3.24777531529992       -0.57666424176374
O           -4.52164376925418       -0.44262537703699        1.58143960571282
N           -4.42170255849737        0.34083096205649       -0.59605892458536
H           -7.02832387978605        0.66205952448067       -2.45226254781328
C           -5.65716283312996        1.09327949209755       -0.44284349653899
H           -5.74574942835015        1.46567698471625        0.58605045213161
C           -5.63968000204686        2.25549565409617       -1.43549089067568
C           -6.77960922697285        0.08979207209561       -0.64098827311328
H           -4.74638862619882        2.84621437586124       -1.22326104302912
H           -5.50565246270070        1.86096121870502       -2.44801942981566
C           -6.87335780497469        3.16658095257840       -1.36726995167438
O           -7.39173057935146        0.01079215503868       -1.83843113524608
H           -7.78411405112658        2.55661088157298       -1.38077172109644
C           -6.88033798382883        3.99210750001707       -0.08242139162554
C           -6.89492356600951        4.09397338358538       -2.58204541649864
H           -5.97823438426838        4.59650148038110       -0.01490996966793
H           -7.74029734914532        4.65770982755509       -0.06841688394916
H           -6.93528630324056        3.35236214630997        0.79433521794531
H           -6.93211429544216        3.52677731948514       -3.51026728443394
H           -7.76472583867308        4.74552319510731       -2.54775937637547
H           -6.00219042263550        4.71549102495564       -2.59708863547269
N           -7.02434111519490       -0.68455503146244        0.31876231339696
H           -6.47590824915334       -1.26934424241142        1.95266462698697
C           -7.96595738273223       -1.77441555517945        0.27925453593670
H           -8.98740671517878       -1.40552611976099        0.12196828346687
C           -7.65045415557557       -2.82699129167268       -0.78960059938114
C           -7.90199932407339       -2.45462033899936        1.65903477588023
H           -6.61613002803310       -3.15293236815410       -0.69382230772074
H           -8.30672240589662       -3.68133658348287       -0.64831792466172
H           -7.80070872318309       -2.41430281314169       -1.78326778054866
O           -6.93032129804764       -2.00346209286225        2.43795278859469
O           -8.65039536621848       -3.33662910430761        1.98246983799531
