42
 energy: -62.486133510750 gnorm: 0.000480377492 xtb: 6.7.1 (edcfbbe)
N           -1.86440580380988       -2.22849419710398        0.07866059392111
H           -1.04456570197899       -2.13815851279415        0.66411906316750
H           -1.67542369023316       -2.92190930520060       -0.63446977891945
H           -3.50595036022137       -2.22400099622819        0.88609304532373
C           -2.26242778264922       -0.95002243633151       -0.51881243500974
H           -1.55059146573188       -0.15340401078437       -0.27696598347856
C           -2.40442730981426       -1.04457131042880       -2.03593841546550
C           -3.61909530527277       -0.55916998766897        0.07379290442977
H           -3.12105913004361       -1.82112875479048       -2.29459499083969
H           -2.77058326698600       -0.09695887274170       -2.41706352141385
H           -1.44514833026137       -1.27209459212338       -2.49784666494071
O           -4.15487805304578       -1.47998186267887        0.88446055471841
N           -4.07141993617207        0.57813879943207       -0.20745145419151
H           -6.97115650386778        1.02838339862642        2.00952756341442
C           -5.37685449416973        1.06404678100015        0.15888121065877
H           -5.24702961506461        1.69328043712174        1.05308057890610
C           -5.86337947761581        1.93727821808536       -1.01454166025182
C           -6.41854630034171        0.00726443201777        0.43982504409800
H           -5.06142468485522        2.63469645734137       -1.25874868409275
H           -5.99980082855152        1.26682799887436       -1.86403859420257
C           -7.16356501572643        2.70406572687099       -0.75305680269228
O           -7.24628446668143        0.24050262318642        1.52612665613918
H           -7.92104940691084        2.01009693632875       -0.37156819246623
C           -6.96629735471504        3.83212395878274        0.25880216449321
C           -7.68465561154284        3.28058546069395       -2.06837299436602
H           -6.23763956983124        4.54749766671458       -0.11638633281598
H           -7.90469683900791        4.35580536960555        0.42736099023082
H           -6.61222578244146        3.46280386870697        1.21909009611652
H           -7.88735834548841        2.48408686050984       -2.77967871390717
H           -8.60603890152205        3.83425271239501       -1.90343471194028
H           -6.95044109772685        3.95472734623302       -2.50409366433004
N           -6.50642931370581       -0.98435180389280       -0.31408333242064
H           -8.77071695371706       -0.33475485931373        0.73736182649508
C           -7.42098814745342       -2.08944674351581       -0.20190102317486
H           -7.07506468799542       -2.82643829999460       -0.93618008673985
C           -7.45615553708787       -2.74139532117084        1.18698478965761
C           -8.85009907908027       -1.70274941185391       -0.60772964830358
H           -7.90230948673888       -2.08114226850338        1.92749402710665
H           -8.03186749740538       -3.66246557888009        1.14186871570205
H           -6.43830119494640       -2.96640421825015        1.49653537498414
O           -9.38819013779896       -0.68707139084247        0.06831632377770
O           -9.45764880919623       -2.28237573183578       -1.46248877173840
