42
 energy: -62.486133520513 gnorm: 0.000478756748 xtb: 6.7.1 (edcfbbe)
N           -2.47136522905925       -1.70784725041010        1.57005794966970
H           -2.72001741192564       -1.53047248010072        2.53776190309184
H           -1.48535539136188       -1.93796688314854        1.53506344761429
H           -4.10304313185469       -2.36361920995542        0.90900080539541
C           -2.77025051786924       -0.54763564155307        0.73440744130151
H           -2.50361097858659        0.41292982135203        1.19580860601975
C           -2.04383269347665       -0.67526124043604       -0.60418346347845
C           -4.27877762166868       -0.55361641805832        0.47724908155031
H           -2.30500703692925       -1.61648483725137       -1.08267544329112
H           -2.33402559845390        0.14507340328652       -1.25321690616989
H           -0.96613437992617       -0.64368234667788       -0.45728826242469
O           -4.82362604581151       -1.77634742487761        0.58491711591685
N           -4.79411965845032        0.53352398113896        0.13797311236898
H           -8.35762630925823        1.37344480595642       -0.97002768019509
C           -6.12596182103226        0.95592546958845       -0.17509532150344
H           -6.32977182454672        1.76713310074560        0.54314893043703
C           -6.06101148882510        1.56866084778166       -1.60286337459678
C           -7.32001494730146        0.02402425169003       -0.05305839673263
H           -5.04120340146488        1.43251584489368       -1.96628184864403
H           -6.71362853271592        1.00820565863382       -2.27749043139727
C           -6.39767433289190        3.06468181169037       -1.66396129845574
O           -8.47964983709917        0.49742465255002       -0.58462187258289
H           -7.31157935814967        3.26281216631391       -1.08693398770671
C           -5.26350227140683        3.88856877923190       -1.05967474189880
C           -6.64602360772613        3.48809373315698       -3.11074535798244
H           -4.36976412795101        3.79707971908744       -1.67233259784688
H           -5.53910049805825        4.93933516959846       -1.00658984517856
H           -5.02250902960948        3.54022665095485       -0.05906490993882
H           -7.49210581479138        2.95248524754444       -3.53714789359289
H           -6.85541971428261        4.55383121624258       -3.16388373498475
H           -5.76850037000747        3.28110554033756       -3.71906532166799
N           -7.27182206952909       -1.05595463417325        0.58016963639011
H           -6.34052651304433       -2.31154773649333        1.62936307901867
C           -8.42770322747027       -1.89485394923775        0.77498595899802
H           -9.33308586506018       -1.31318269882944        0.99042062962968
C           -8.68328887118308       -2.78133499646708       -0.44965303092129
C           -8.12067877657686       -2.81234929134011        1.96608817294915
H           -7.77977483334262       -3.33386253205033       -0.69975624491139
H           -9.48370649921719       -3.48193582182986       -0.22827961217477
H           -8.96827319190247       -2.16473982335857       -1.29872884233351
O           -6.82997406392429       -2.90864897006553        2.24784599637703
O           -8.97314434903463       -3.40776310887687        2.56729344156497
