42
 energy: -62.486133515631 gnorm: 0.000479647958 xtb: 6.7.1 (edcfbbe)
N           -0.75767100125009       -0.01290690524467       -0.15702468787272
H            0.10350001491162       -0.18560496520618       -0.66110849291178
H           -0.67284724274286       -0.45600861016500        0.75376779842682
H           -1.96273576142936        1.45898728410065        0.24555556160092
C           -1.90537045665936       -0.56453007328324       -0.87470219394012
H           -1.81937371033423       -0.24187715591745       -1.92078607220056
C           -2.02054032035815       -2.08718144099979       -0.82983373194059
C           -3.14740004601457        0.11534516417970       -0.31610231393195
H           -2.11403130397574       -2.42862979102227        0.19954026505329
H           -2.89900438782233       -2.40224498059427       -1.38308781147196
H           -1.13886199462775       -2.54524979051706       -1.27337272190766
O           -2.93035735766223        1.31468096201171        0.24232132891684
N           -4.26391035451965       -0.45480158769861       -0.41737627734721
H           -5.13056779676175       -2.14600010317214        0.13618336021562
C           -5.49823757403938        0.14054839532163        0.06075022744957
H           -5.40987202431336        0.34397746223164        1.13855011169793
C           -5.86994953274439        1.44012425965697       -0.66470407259020
C           -6.54187453148788       -0.94425867624551       -0.12836629965762
H           -4.96879063555182        2.04439987715639       -0.77588490899123
H           -6.22818268301202        1.17495258021357       -1.66044972451764
C           -6.93220043265175        2.26635343096064        0.07066058983586
O           -6.10353826938969       -2.19146215493161        0.11500679555847
H           -7.70250750329725        1.58656031455090        0.44541410062466
C           -6.32247831273716        3.01907801562729        1.25165703524094
C           -7.57856810909206        3.25750884378847       -0.89548525981757
H           -5.56832949119350        3.72184526444547        0.90337905413789
H           -7.09101286777038        3.57540712636484        1.78320717684892
H           -5.85119479855918        2.33799064589045        1.95592704369012
H           -8.06312898215928        2.74063743845709       -1.72006862591116
H           -8.32770429767597        3.85486144915034       -0.38144019332371
H           -6.82713070286106        3.93015075116337       -1.30432693730490
N           -7.69593287632455       -0.67134901520380       -0.55026075441815
H           -8.81167191318965        0.47918582913285       -1.38257932261154
C           -8.68406407883544       -1.69989019176810       -0.78042032373865
H           -8.24902629872734       -2.58113986744436       -1.26973908012683
C           -9.35655176436173       -2.14341947891711        0.52305863150487
C           -9.75417640592533       -1.09657572269508       -1.70259593871247
H           -9.75549226243788       -1.27822192200409        1.04907419543039
H          -10.16952588865390       -2.82630609376352        0.29316859335119
H           -8.63163065588664       -2.64372690769274        1.16034956803836
O           -9.62062767841818        0.21205278362939       -1.88141092543561
O          -10.63361897115341       -1.74528832604778       -2.19750977742628
