42
 energy: -62.486132503089 gnorm: 0.000656501778 xtb: 6.7.1 (edcfbbe)
N           -2.40349828047077       -1.55735172461888        1.67112647817281
H           -1.48121407939500       -1.97406505352509        1.69889440143216
H           -3.07134295684212       -2.27095019036530        1.95268680910236
H           -3.41267570712318       -0.05210426760711        2.26806305987193
C           -2.72707621812909       -1.08604764236990        0.32555922702541
H           -1.87289071241137       -0.49587711217461       -0.03044894489670
C           -3.03272429172540       -2.19463268694116       -0.67988859826278
C           -3.90744406188282       -0.13593531256428        0.46313532978476
H           -3.85264617546956       -2.80881998825690       -0.31438049550461
H           -3.33070497013205       -1.75178299519993       -1.62361484474374
H           -2.15804569326896       -2.82376370952576       -0.83276904541785
O           -4.08430670910644        0.37102459736862        1.69443765664108
N           -4.63746660762364        0.10010276600834       -0.53352585782649
H           -7.51227424967007        0.82534296722197       -2.21410212825497
C           -5.79396660179598        0.96849754889689       -0.40473176528346
H           -5.85138170632758        1.40783142854841        0.59968159793697
C           -5.70755753213153        2.07471879313523       -1.45863308627107
C           -6.97596523691375        0.02393051236162       -0.56054051996246
H           -4.71965882420283        2.53129272896544       -1.36934388107657
H           -5.74367272653128        1.62510931275556       -2.45635454966830
C           -6.77836855605354        3.16622492230291       -1.30291590895277
O           -7.79223405244792        0.11507104868353       -1.62211519373772
H           -7.74315540138164        2.70572375265006       -1.05794014185473
C           -6.41643780015954        4.12306578795504       -0.16872862980192
C           -6.92869689531883        3.94347205559296       -2.61039065611466
H           -5.48346561362463        4.63666476141477       -0.39098487175159
H           -7.19658868497798        4.86970095630354       -0.03997195916035
H           -6.29920462549973        3.58940586540004        0.77084381640106
H           -7.24937653587539        3.29494179193147       -3.42383104977794
H           -7.66544371933189        4.73512038103462       -2.49857344042363
H           -5.98000409348095        4.39681944899847       -2.88929902410192
N           -7.08479652327970       -0.85142379033435        0.33738488765055
H           -6.30845131700436       -1.53405384883285        1.74988180775906
C           -8.03993700982452       -1.92895547646949        0.36355793824153
H           -9.05660952197627       -1.54584522337990        0.51890690431113
C           -8.02541812938377       -2.81116522836954       -0.88800818292729
C           -7.66362106354656       -2.79425288191893        1.58315853372369
H           -7.00549281087967       -3.12094380483059       -1.10774386293777
H           -8.63395801046664       -3.69278438506391       -0.70529120933155
H           -8.42002134911906       -2.26710700532873       -1.74111790997530
O           -6.58003965994716       -2.36601464851971        2.21883312299533
O           -8.27835654985666       -3.77221026236755        1.90802937956543
