42
 energy: -62.486133524420 gnorm: 0.000478548167 xtb: 6.7.1 (edcfbbe)
N           -1.45099340763038       -1.96696644529672        0.59763006827601
H           -1.53919563194134       -1.97252034381668        1.60861224847894
H           -0.47801997338820       -2.13260377320954        0.36875568658506
H           -3.16722608027013       -2.60118310557892        0.03178778807288
C           -1.90502117492418       -0.69121072660781        0.04692693419129
H           -1.60249328984116        0.18356707958532        0.63758204940619
C           -1.38784542322603       -0.53144010474979       -1.38334284711486
C           -3.42652526488580       -0.73749420547934        0.00775967326771
H           -1.67958555337407       -1.38853683240105       -1.98716316622881
H           -1.80222586666354        0.37151656969601       -1.82173159295375
H           -0.30256426254561       -0.45707750304368       -1.38727143175443
O           -3.92480180683337       -1.99337009945972       -0.09908321441788
N           -4.05891456111153        0.33955100055689        0.04280322153823
H           -5.32294040577324       -1.45034891287450       -1.44086204805209
C           -5.46979159124248        0.60420887986723        0.00676685329411
H           -5.70761811913839        1.04283047541657        0.98150176897015
C           -5.67363765611863        1.68630799804479       -1.08109706567707
C           -6.47598215378466       -0.49901084304905       -0.24643654392130
H           -4.88100484907476        2.42376732055879       -0.94510793609317
H           -5.52807648390091        1.21768195068723       -2.05841759787582
C           -7.03589600365281        2.38510798633418       -1.05627285876943
O           -6.26223790808321       -1.39697643969780       -1.22122311538148
H           -7.82453890132116        1.62689145073583       -1.08084697174002
C           -7.21635072494220        3.23264743281276        0.19995682714022
C           -7.17362900622614        3.26371704157430       -2.29926295013552
H           -6.43953671216796        3.99221723188022        0.25918492119277
H           -8.18295115236985        3.72943840504147        0.17819541933956
H           -7.17444271063416        2.62249453971143        1.09771243731258
H           -7.08854533493960        2.66949836283214       -3.20632910574470
H           -8.14139566284264        3.75865130043367       -2.30628027070951
H           -6.39762277618525        4.02639041486443       -2.31326163638541
N           -7.57396751932318       -0.41597266515023        0.37280459134366
H           -8.75014251346455        0.59630635939575        1.29716483685144
C           -8.66323677804646       -1.33011883509494        0.10964305672303
H           -8.79006604624167       -1.51630580407883       -0.96483045047151
C           -8.46047372298418       -2.67164635408396        0.82167943808934
C           -9.94478192166553       -0.67647238776642        0.64688617189863
H           -8.29255860234983       -2.50542204337951        1.88389358831477
H           -9.34839978945630       -3.28390803300542        0.69207174331501
H           -7.59928205471622       -3.18622837214596        0.40281414221965
O           -9.72389998494423        0.44077100983899        1.32976474518089
O          -11.03777187800549       -1.14077468267296        0.47585736004313
