42
 energy: -62.486133507590 gnorm: 0.000480497936 xtb: 6.7.1 (edcfbbe)
N           -0.76605699065100       -0.14761123847480        0.05992180558965
H            0.11655104120014       -0.17221879906963       -0.43534364290663
H           -0.70606344895621       -0.81350346539923        0.82534443764072
H           -1.98567182032392        1.13921906783887        0.80942238596052
C           -1.87641343396750       -0.49955657359104       -0.82360746049527
H           -1.73047532846225        0.04024188824450       -1.76761089639913
C           -2.01156281784381       -1.99279761433652       -1.11738236552239
C           -3.14492099239964        0.06238388593380       -0.19731119037448
H           -2.13136312835271       -2.55011358513942       -0.18952655391500
H           -2.88376156573705       -2.16065629500231       -1.74042853011698
H           -1.12720638041338       -2.35952210569499       -1.63422499206257
O           -2.95361089948696        1.03731320443991        0.70275036619876
N           -4.26659701124682       -0.37917957404634       -0.56051535457937
H           -5.14279265395406       -2.16653078561902        0.07289369041440
C           -5.49413775619534        0.14798328996372        0.00830882411018
H           -5.37561318280245        0.28797851828519        1.09454061954779
C           -5.88089068905380        1.48881645993023       -0.62710866852897
C           -6.53457629694768       -0.92938147820659       -0.21268463440099
H           -4.98100081170777        2.10303173093639       -0.69763478806942
H           -6.23579402315253        1.28843249441706       -1.63870318117561
C           -6.94844781300613        2.25438408102655        0.16362712878547
O           -6.11250619050724       -2.18492878041059        0.03430630912323
H           -7.71163383169743        1.54332806430850        0.49221250896323
C           -6.34301133578134        2.93125080844854        1.39186057236021
C           -7.60659351657428        3.30232961812726       -0.73206872419516
H           -5.60574106245705        3.67244517485941        1.08996362756021
H           -7.11709291700662        3.43263169611035        1.96817051659723
H           -5.85199924540722        2.21040274570918        2.04069068488750
H           -8.09081829957984        2.83746161244100       -1.58722607257084
H           -8.35781331217903        3.85817543242680       -0.17618066948996
H           -6.86233404300644        4.00670958111796       -1.09830473585973
N           -7.67554746547976       -0.65001368625616       -0.66291955665930
H           -8.77144476754966        0.52014017730129       -1.49349950254572
C           -8.66708892220509       -1.66811210878698       -0.92076680401776
H           -8.23166112657869       -2.54565563028452       -1.41606904078776
C           -9.36086706044589       -2.12344207813513        0.36748778179244
C           -9.72071918633005       -1.04397346999442       -1.84846117671394
H           -9.76168369542202       -1.26206572590199        0.89837734973476
H          -10.17495938256302       -2.79794290584438        0.11783747241607
H           -8.64838144539694       -2.63621698142035        1.00881062490015
O           -9.57596650526971        0.26614647093837       -2.00603921121017
O          -10.59792194709022       -1.67940898860117       -2.36397395409050
