42
 energy: -62.486133508927 gnorm: 0.000480164779 xtb: 6.7.1 (edcfbbe)
N           -0.75079321430449       -0.27382747302541        0.08931268317781
H            0.12974933204801       -0.27350829573044       -0.40984048146696
H           -0.70121252558435       -1.00163319484584        0.79677420041548
H           -1.92566444493961        0.97103017662039        0.94400998263283
C           -1.87120973534662       -0.52873227829185       -0.81518601553312
H           -1.70348908830118        0.05912645050158       -1.72578594767485
C           -2.06450552250296       -1.99567636442252       -1.19558322510552
C           -3.12195899093893        0.04127265422376       -0.15943213273759
H           -2.17904325314817       -2.60548397390117       -0.30046195784369
H           -2.96007938339701       -2.09402098779677       -1.80008931179061
H           -1.20810743852864       -2.35963720103989       -1.75914154454291
O           -2.89713599594427        0.92184115963016        0.82913369337549
N           -4.25566041692187       -0.30732547813966       -0.58013090325618
H           -5.12458442134198       -2.03685120421860        0.56399984842642
C           -5.46526413231520        0.24003181045571        0.00684943139488
H           -5.30017208281211        0.49602900345521        1.06621354828946
C           -5.90346234499374        1.49697568467201       -0.75277505117689
C           -6.49139104874403       -0.87006370720878       -0.04813205529299
H           -5.02415301421611        2.13014334423325       -0.89073695683147
H           -6.25304407960764        1.18513997071796       -1.73731904106421
C           -6.99385028739486        2.30025393606433       -0.03406718038526
O           -6.08490971047045       -2.05702186616619        0.45021462118809
H           -7.73592675760790        1.60068259024683        0.36069558523241
C           -6.41075632106296        3.10679294588824        1.12485264981977
C           -7.68280291237327        3.23936212746705       -1.02256443687615
H           -5.69326263307788        3.83634905531398        0.75449586421546
H           -7.19997086410685        3.63941463659534        1.65038037171632
H           -5.90316243783697        2.46429424534982        1.83985511119132
H           -8.15349325087754        2.68156140336116       -1.82830061284412
H           -8.44966942336258        3.82331213756114       -0.51923821492036
H           -6.95967331197786        3.92719146162128       -1.45627486599759
N           -7.61851494901969       -0.68809583163486       -0.57416151081111
H           -8.69331060632538        0.31030071009505       -1.62759137233866
C           -8.60463754649803       -1.73870455835228       -0.66873663872658
H           -8.15890980132538       -2.69301420228538       -0.97706021080942
C           -9.34071256325451       -1.94363111023787        0.65981280124801
C           -9.62764872615490       -1.29907126459389       -1.72761357456718
H           -9.75533000387170       -0.99836437262210        1.00489896467243
H          -10.14900326587479       -2.65509532299282        0.51647929862479
H           -8.65142508794714       -2.32397822073670        1.40952500785753
O           -9.48264113525816       -0.03586618441521       -2.10856857290092
O          -10.48539786513627       -2.02352825481914       -2.14977680226872
