42
 energy: -62.486133505919 gnorm: 0.000480463021 xtb: 6.7.1 (edcfbbe)
N           -1.87721617120954       -0.65985784511276        1.46205770882434
H           -0.94132095061223       -1.02706250631792        1.33976768590049
H           -2.29908383365352       -1.15826556471779        2.24127808276531
H           -2.81970233269089        1.00141843088514        1.60098681553181
C           -2.68111021398427       -0.86764993939415        0.25686225918231
H           -2.07154198423814       -0.55305360036490       -0.60027649983944
C           -3.15160708136226       -2.30438813278152        0.04292759927112
C           -3.85867609059984        0.09277016129677        0.33356725341112
H           -3.69552555128767       -2.65736741749634        0.91643816696544
H           -3.81870851690282       -2.33789458594173       -0.81117947313575
H           -2.30203667803906       -2.96098561584605       -0.13344238897206
O           -3.67949958711166        1.14469518903664        1.15495752934251
N           -4.88899573433300       -0.13174381606411       -0.34951476722344
H           -8.23726382468675        1.30271408611460       -1.26688719064168
C           -6.01553039114038        0.77143452779195       -0.30692951828911
H           -6.04480368581256        1.31388891264593        0.65226837503700
C           -5.92847978601531        1.79341758857461       -1.45769702916336
C           -7.26012468699972       -0.09133391353364       -0.37352968660069
H           -4.87360859445762        1.92483365900332       -1.70606756370364
H           -6.40629766104962        1.37645011555715       -2.34889489135766
C           -6.52254662003576        3.16755168449540       -1.10750787801113
O           -8.38485753222485        0.41245797695764       -0.92325404108514
H           -7.43344213551685        3.03800888268138       -0.50764891098979
C           -5.52842586417366        3.97678602630067       -0.27652353684138
C           -6.88823676736370        3.92953040998159       -2.38056386413776
H           -4.65894036290914        4.23258725790971       -0.87826584980980
H           -5.98496520553653        4.89841081598601        0.07687419377007
H           -5.18784678649150        3.40763209720670        0.58483683720652
H           -7.63931447349084        3.39572738236384       -2.96051713518521
H           -7.28417770976661        4.91185547577826       -2.13394932974881
H           -6.00743879364459        4.06307402126844       -3.00461732590982
N           -7.19683628154235       -1.23306528782627        0.14663961290379
H           -6.17266435393376       -2.43207806552761        0.91961563435357
C           -8.28324832892321       -2.17731978020222        0.20008078209765
H           -9.17375253415159       -1.74378205627251        0.67261014947430
C           -8.66905069318815       -2.72032321913249       -1.17995183981040
C           -7.78202108597707       -3.34955792993165        1.06370924413737
H           -7.78541864036696       -3.10510515728902       -1.68508475440032
H           -9.38980592954789       -3.52424029753717       -1.05907609390530
H           -9.10649165728577       -1.92897039592702       -1.78284565449307
O           -6.48440118193233       -3.28012027935641        1.33144243611215
O           -8.49117499463596       -4.24310515137314        1.43624009900690
