42
 energy: -62.486133511041 gnorm: 0.000479889887 xtb: 6.7.1 (edcfbbe)
N           -1.18501553077802       -1.75300942825545        0.21436644141812
H           -0.80597882278821       -1.39188442281830        1.08358556291352
H           -0.41411147844688       -2.10965736487477       -0.33784741041373
H           -2.93186882470809       -2.37506867478535        0.67380222647085
C           -1.90779450897245       -0.71117392713929       -0.51409279058015
H           -1.44917156475726        0.28380321053443       -0.43782456014527
C           -2.02806878456588       -1.09278798446587       -1.98948860356265
C           -3.31192101849133       -0.63656208041954        0.07103461570508
H           -2.48700146055180       -2.07441612713973       -2.08685811131141
H           -2.64522370163563       -0.36197872034575       -2.50295478021909
H           -1.04536754399360       -1.11669128807994       -2.45604374965525
O           -3.69940008685734       -1.76556005939175        0.70647977560127
N           -3.96705539394011        0.41657678013608       -0.08684418343849
H           -5.17204374146699       -1.10559375253105        1.97943021131659
C           -5.33072596130405        0.72009730330022        0.27482298502462
H           -5.27004315800896        1.29676025649788        1.21189476744235
C           -5.86423097257405        1.63861518707410       -0.83496748376797
C           -6.27069536828004       -0.44089584540922        0.55182829929006
H           -5.05965544672789        2.32995989550086       -1.08893019532432
H           -6.06206943284409        1.01964268018774       -1.71011666974686
C           -7.12220266894746        2.43016617128869       -0.46250630782906
O           -6.08850373704526       -1.16086346329845        1.67612632257867
H           -7.83185423301104        1.75328283017308        0.02151312032190
C           -6.79896634626721        3.57213753339587        0.49884677346309
C           -7.77025554839480        2.98762032097933       -1.72874484364743
H           -6.09200967067092        4.26226524975911        0.04302789260238
H           -7.70298837184202        4.12329244497500        0.74760424676568
H           -6.36757183045688        3.20177544506010        1.42551746613114
H           -8.06385761934838        2.18480431107089       -2.40055201806519
H           -8.65763417841024        3.56474846502341       -1.47966824910179
H           -7.07481126708129        3.63923900324524       -2.25356969988830
N           -7.25340465466237       -0.62719986086353       -0.21457280859709
H           -8.07571840090306       -0.32327534249974       -1.78510313924500
C           -8.22073696259016       -1.67377331847270        0.01334521503425
H           -7.74608784628002       -2.61536871817998        0.31693326021074
C           -9.24558079804675       -1.27108190504997        1.08026200963177
C           -8.96779100609335       -1.88577623945100       -1.31193498651955
H           -9.70787215335699       -0.32238597761734        0.81348779735213
H          -10.01518334850795       -2.03502961504400        1.14545850410374
H           -8.75363157852102       -1.16851486633425        2.04423346331556
O           -8.73945909384323       -0.92561952324696       -2.20034141299991
O           -9.70262714007213       -2.81264419391345       -1.51170408553749
