42
 energy: -62.486133513360 gnorm: 0.000479945135 xtb: 6.7.1 (edcfbbe)
N           -0.96108546520599       -1.42368770449751        0.21912490090488
H           -0.65650009153060       -1.03219014685439        1.10379948307593
H           -0.13620049921904       -1.64502945691879       -0.32547005357792
H           -2.56432672528790       -2.31105616223384        0.62863536637807
C           -1.82431569001643       -0.48591228651319       -0.49793714414676
H           -1.52689245480937        0.56497085028915       -0.38904043971017
C           -1.86377769906513       -0.84316927729801       -1.98398762266504
C           -3.23274046623359       -0.64636795204982        0.06077680768496
H           -2.16234069150932       -1.88156515471805       -2.11242659299611
H           -2.58040709398401       -0.20439479029513       -2.49111443735238
H           -0.88367496296063       -0.70177741824569       -2.43463833673032
O           -3.43739764657701       -1.85845281278709        0.64225328900906
N           -4.02730103027375        0.30823190436650       -0.05053055799290
H           -5.14121225124012       -1.89784925059555        1.11217911030211
C           -5.42304270063514        0.46318394162234        0.27746452778436
H           -5.46004990626321        0.73648684445351        1.34597716484222
C           -5.92212107489185        1.65755086962099       -0.54964215870790
C           -6.34182683980179       -0.74261075872445        0.14717210308824
H           -5.09350989781430        2.36336099404310       -0.61939017978648
H           -6.14252138797542        1.30089028591187       -1.55555966226772
C           -7.14862994786489        2.36923816860409        0.03247023734361
O           -6.07455027712824       -1.85858442287337        0.84030036616581
H           -7.87706556271320        1.61457719250773        0.34189970261058
C           -6.77483679137140        3.21768941098594        1.24659048483641
C           -7.78664457420934        3.25516385343523       -1.03629689361780
H           -6.05975456811617        3.98767774896361        0.96433844931417
H           -7.65831691627253        3.70414263858819        1.65367899219160
H           -6.33266378489402        2.61326192442654        2.03487650598861
H           -8.11551768617995        2.66531359429119       -1.88816607337725
H           -8.65003335358067        3.77761420243734       -0.63113239850244
H           -7.07200554783121        3.99705956727555       -1.38660324369582
N           -7.39286652953149       -0.61498161652545       -0.53991766210636
H           -8.32605770114225        0.26945015953251       -1.79906121707405
C           -8.35464212551596       -1.68302764517661       -0.67394261219738
H           -7.87339756738696       -2.66097962962817       -0.80258369448467
C           -9.29219375156703       -1.75020763683401        0.53728329586478
C           -9.19992347500720       -1.36869652764860       -1.91722099897039
H           -9.75656804213122       -0.77972986206920        0.70246343358439
H          -10.06738481270028       -2.48829505730410        0.35142139708491
H           -8.72946935706071       -2.03078108897453        1.42409669793813
O           -9.02379747378917       -0.13338932958339       -2.37097151545540
O           -9.95862684210537       -2.15515409090296       -2.41223355984859
