42
 energy: -62.486132350418 gnorm: 0.000610734825 xtb: 6.7.1 (edcfbbe)
N           -1.64778766008718       -1.81775074508102        0.58788271035123
H           -1.18292301413667       -1.23318252077773        1.27515261867537
H           -0.95538985219670       -2.44428412255807        0.19429099649725
H           -3.47287062409154       -1.93493459489914        1.25104041550365
C           -2.25747926748336       -0.99915487930717       -0.45996466924628
H           -1.64188606422423       -0.14619641105340       -0.77583360803764
C           -2.57342114927085       -1.86694182698019       -1.67866399185562
C           -3.56962853136659       -0.46749348989334        0.08511211374931
H           -3.18161028806384       -2.71932965000801       -1.38341289830920
H           -3.12226799494604       -1.27909074456988       -2.40767243294386
H           -1.65468653003049       -2.23174141560587       -2.13327475907623
O           -4.11390598250760       -1.21843695929463        1.06649171041227
N           -4.05974828599862        0.58086773814905       -0.39809295104578
H           -6.01517018368116        0.11968954892739        2.17921608201376
C           -5.35436075147921        1.09340514353474        0.00422652666933
H           -5.20866888280909        1.67595201416908        0.92636416665238
C           -5.84813508730863        2.01514103892286       -1.11596617534702
C           -6.36013718343840       -0.00575477353158        0.27002323587216
H           -5.05572679529690        2.73428982885342       -1.32600429253938
H           -5.98950024981046        1.39045720299721       -1.99722314928699
C           -7.15518606450646        2.74817972289774       -0.80100688545584
O           -6.68916096166925       -0.23964250668000        1.59015596086323
H           -7.91560823199239        2.00796357796616       -0.52981060622841
C           -6.99814135500799        3.73806792703200        0.35203345720089
C           -7.63171822955030        3.48350218386724       -2.05210166476761
H           -6.20319261059597        4.44884735243392        0.13558777334888
H           -7.92272978610789        4.29178394480357        0.49777115861608
H           -6.76519089756818        3.23302439513691        1.28638171954672
H           -7.78193890950423        2.78385025259443       -2.87000450500748
H           -8.57287151930668        3.99324456302404       -1.86045515885016
H           -6.89560651106149        4.22322465831223       -2.36015726293586
N           -6.86147380876177       -0.61266475431937       -0.70156570145399
H           -8.46452715131872       -0.44629508022171        1.30262150924952
C           -7.80796417610171       -1.69553807927359       -0.65641606062654
H           -7.86495116681310       -2.07287224485026       -1.68426086548956
C           -7.42010113194432       -2.84778418129265        0.28087360953049
C           -9.22118177999237       -1.21855118133937       -0.28767614717774
H           -7.42244499204743       -2.53348518680605        1.32203603285544
H           -8.12283288244617       -3.66785340299633        0.15611312032378
H           -6.42061734921184       -3.19430296796410        0.02809051741425
O           -9.32618689344486       -0.54294725925923        0.85595977931176
O          -10.17726047156378       -1.45728799660123       -0.96892624676252
