42
 energy: -62.486133509913 gnorm: 0.000479864192 xtb: 6.7.1 (edcfbbe)
N           -2.43636301069679       -0.53683868911715        1.86467101830281
H           -1.44311538101883       -0.73707741195826        1.86713836486526
H           -2.91051969735827       -1.35133125080637        2.24789981181366
H           -3.69626867713708        0.84048128348648        2.34582491165988
C           -2.91449037336752       -0.29307530783732        0.50370538288121
H           -2.24919592787013        0.45960634693162        0.05745162706914
C           -2.95269658703323       -1.52803647415817       -0.39338918503679
C           -4.27964248680720        0.36444945634008        0.62849561636058
H           -3.47479004310707       -2.34116315640314        0.10603999855658
H           -3.48122519635460       -1.28826329671017       -1.30952858364047
H           -1.94235493102001       -1.85430942540741       -0.63178057280070
O           -4.47443385060708        1.03052202858091        1.78391118117849
N           -5.10991487611861        0.28143217181616       -0.31083287856915
H           -8.81309847224485        1.20266537325167       -0.07393270888690
C           -6.39636578243331        0.92570110734206       -0.23068513437591
H           -6.45909844640332        1.63617251035223        0.61149767749494
C           -6.66551678808641        1.65863657560724       -1.55987404138880
C           -7.43966548555934       -0.14040081075003        0.02291409552623
H           -6.07295023287138        1.15602974907923       -2.32580654414255
H           -7.71767151341569        1.56026284672149       -1.84254145060059
C           -6.30578222544722        3.14795936086806       -1.52792257853065
O           -8.73452986644809        0.24833189055475        0.05136899325916
H           -6.86654479070298        3.62846281612465       -0.71566220471579
C           -4.81595710136330        3.35735893996050       -1.27424680303062
C           -6.71366894792029        3.80267131029579       -2.84661828381762
H           -4.23004427169087        2.85097517818253       -2.03769492374281
H           -4.57473308433000        4.41784328140881       -1.29648385328554
H           -4.52763405965458        2.96277841840351       -0.30449009692246
H           -7.78037071210781        3.68585722085042       -3.02698706820877
H           -6.48531027599757        4.86562753752746       -2.82936763303485
H           -6.17406114770395        3.34951315097209       -3.67502048762685
N           -7.06267379127214       -1.31274337432839        0.26358557519159
H           -5.70026069928514       -2.34691052037990        0.59882609561763
C           -7.93754635595410       -2.40666343218382        0.59724731801455
H           -8.68217709609134       -2.12277091934334        1.35196607329330
C           -8.66264821055398       -2.96367638087167       -0.63146510542736
C           -7.03023089215544       -3.50557602750210        1.18038088866337
H           -7.94128558789886       -3.20033618449177       -1.41084407001788
H           -9.19772947283220       -3.86724418998246       -0.35301341430981
H           -9.36666323668594       -2.22752243140470       -1.01115575832471
O           -5.73709509499497       -3.23660963577136        1.04123873394428
O           -7.44986656825934       -4.50481511800767        1.69411452353459
