42
 energy: -62.486133516839 gnorm: 0.000478989154 xtb: 6.7.1 (edcfbbe)
N           -0.87392515646005       -0.35705333623300        0.27652814687998
H            0.00036393134884       -0.69933658454075       -0.10346486087488
H           -0.94773414940375       -0.70106735299402        1.23013160715440
H           -1.89435290081741        1.26788245215526        0.43193016814813
C           -2.01006615147622       -0.83526792039473       -0.50956243076221
H           -1.77307059455915       -0.64650296144799       -1.56544275469716
C           -2.33769047130830       -2.31476708248762       -0.32273209826047
C           -3.19729640947535        0.05573391631657       -0.16521251171192
H           -2.54124639655185       -2.52200244101915        0.72542868858350
H           -3.22233842809369       -2.56966490412346       -0.89573638778352
H           -1.50464560425848       -2.93240334297545       -0.65210342620219
O           -2.86730808822454        1.26116830974675        0.32383411597774
N           -4.36386358729867       -0.37847408694426       -0.34086582663479
H           -5.60261463974889       -0.81372776565938       -2.11038447825109
C           -5.55626265227801        0.41365249367092       -0.11437823043069
H           -5.69097277717903        0.59238228725857        0.95666633608511
C           -5.54391874290669        1.75768222299618       -0.86770015519178
C           -6.69644397899025       -0.43836825579205       -0.62433798135857
H           -4.75839370121461        2.38254910772439       -0.44196369048021
H           -5.28561341319123        1.56357468694185       -1.91382212705496
C           -6.87622909850699        2.51265646489126       -0.81572264816664
O           -6.52437864427618       -0.95981234608626       -1.85085283337399
H           -7.66588831580676        1.86774994711703       -1.21665435752153
C           -7.24825278659238        2.90261548243476        0.61189484418846
C           -6.77919334660092        3.76068550943654       -1.69226335499530
H           -6.44941092665434        3.48609596762562        1.06520268577823
H           -8.15461455096755        3.50308742104579        0.61085278982805
H           -7.42957916900607        2.02175245534182        1.22103463094714
H           -6.54296681702487        3.49614113196956       -2.72075004168380
H           -7.72225407513221        4.30140002485234       -1.68764005559775
H           -6.00113252505146        4.42429922746832       -1.32048679590577
N           -7.69433460634785       -0.66922047013037        0.10858005464531
H           -8.75413837126618       -0.18199926386745        1.49352638753233
C           -8.79403668617469       -1.49339557779047       -0.34627982377107
H           -9.04365443095793       -1.30429900477478       -1.39764869268262
C           -8.48253472919493       -2.98387136301523       -0.17136081830592
C          -10.01256755554055       -1.14980587149581        0.52252727353938
H           -8.17921784157003       -3.18057507047129        0.85489224349717
H           -9.37153719005394       -3.56524370450047       -0.39907846255334
H           -7.67681141606445       -3.27438329168090       -0.84058328051052
O           -9.71758672691464       -0.38027053696117        1.56363281222259
O          -11.11847753688254       -1.55162241196771        0.28930035786169
