42
 energy: -62.486133514166 gnorm: 0.000479754354 xtb: 6.7.1 (edcfbbe)
N           -2.63745488284837       -2.24015918028174        1.35909632664768
H           -2.79746294540619       -1.94857229576877        2.31791431383798
H           -1.72819061136841       -2.68414686531693        1.31302178758663
H           -4.42875062001173       -2.54918518922446        0.77948079090308
C           -2.71008439482775       -1.09932297808566        0.45023440898943
H           -2.19264156051476       -0.20156862811945        0.81538018066082
C           -2.13549281336460       -1.49003380549807       -0.91199665326760
C           -4.18860746149421       -0.76420531340746        0.27514923067307
H           -2.65147612639786       -2.36718333342374       -1.29701121201077
H           -2.26330600192264       -0.66797834875492       -1.60971937540324
H           -1.07509357494755       -1.71816583151836       -0.82614520913497
O           -4.99853510629449       -1.82069053930045        0.44936344579811
N           -4.48041590994173        0.41183915177933       -0.04242716798880
H           -7.36010880609892        0.63860112962504       -2.13433892771532
C           -5.76490852129282        1.02966188869849       -0.26026854259093
H           -5.91530819382587        1.65833687999849        0.62940549055611
C           -5.60654687251555        1.95619167591679       -1.47625506608661
C           -6.97849139747673        0.11240886579246       -0.32255935574837
H           -4.61605107126980        2.40631355121964       -1.39357612498402
H           -5.59310092000140        1.35859171808021       -2.39447669776127
C           -6.66031354579553        3.07144201694182       -1.56309814535830
O           -7.71536793947744        0.05473171775534       -1.45250733423046
H           -7.64881111617746        2.67044852584085       -1.30901008839372
C           -6.34406348870075        4.19368691993135       -0.57683691961644
C           -6.71493013974085        3.63091156732903       -2.98461354372590
H           -5.38441074074063        4.64698632452253       -0.81518896718385
H           -7.10943519449164        4.96481906339835       -0.62341274939769
H           -6.30286448744820        3.81935950688740        0.44278471527885
H           -6.99951952223446        2.86397341924663       -3.70307662393064
H           -7.44111282927794        4.43771137364514       -3.04725898549155
H           -5.74200240004272        4.02380251475573       -3.27174455417869
N           -7.23984950414757       -0.56917339352095        0.70091588864236
H           -6.53261747904030       -1.35258099558039        2.15688076491205
C           -8.32408770851505       -1.51396399050067        0.80387684762976
H           -9.29367185831729       -1.00674542480567        0.72717340155422
C           -8.26505136084408       -2.64126861964493       -0.23433938572761
C           -8.20675897205854       -2.15588135460684        2.19600345613007
H           -7.27335870529038       -3.08881953025374       -0.22696247376775
H           -9.00424181225928       -3.39671528026841        0.01794674438991
H           -8.47060521867971       -2.25091235807848       -1.22709093582104
O           -7.03201077388511       -1.94085569028789        2.77456805610941
O           -9.07907869021639       -2.81371437588611        2.69365412336746
