42
 energy: -62.486133517285 gnorm: 0.000479269391 xtb: 6.7.1 (edcfbbe)
N           -1.74518376936569       -1.11921843658061       -0.22150881034913
H           -1.13388876714214       -1.92198126266041       -0.13323102952139
H           -1.30346684458201       -0.34504258530986        0.26737065830170
H           -2.77867334011939       -0.21285870845053       -1.57455594212528
C           -3.05438107023880       -1.39457007721600        0.37208686007712
H           -3.38830891252752       -2.36558887653555       -0.01626088158736
C           -3.07275835732725       -1.43332268782232        1.89704840492389
C           -4.02680853833821       -0.35901888085188       -0.18048012556307
H           -2.71392013470984       -0.48873801688477        2.30098023162510
H           -4.09000861262995       -1.58785268511201        2.23863849827354
H           -2.44156357272013       -2.23978582194739        2.26429583013034
O           -3.66634402549726        0.14883919533085       -1.37584522262068
N           -5.06719462719072       -0.10526147491855        0.47092445120463
H           -7.84730968202031        1.32527121570606       -1.64488286949317
C           -6.12520872594850        0.78544788730049        0.05954814664654
H           -6.52104008457419        1.18597089282386        1.00565194886769
C           -5.74449727769450        1.96530175016735       -0.85163186491441
C           -7.22541417237153       -0.09779522299919       -0.51156561670763
H           -4.70909550728987        2.23310627171822       -0.63782785480188
H           -5.76975384151270        1.64923224022495       -1.89824012323804
C           -6.61758303256311        3.21317537238839       -0.62885720175203
O           -8.07941466493044        0.41510589681173       -1.42023099433617
H           -7.65593811559229        2.91853978986310       -0.42661291852160
C           -6.12190452152277        4.00077712781340        0.58295738275592
C           -6.60061974353382        4.10155438732119       -1.87230336623318
H           -5.12238549718181        4.38809846878422        0.39716294776206
H           -6.78196018919691        4.84043572624428        0.78852421260325
H           -6.08546288429453        3.37048196933585        1.46843843894142
H           -7.00367198416881        3.57998021594488       -2.73894185497605
H           -7.19568371025883        4.99706407824781       -1.70851086890174
H           -5.58185720712273        4.40544779875682       -2.10223857407074
N           -7.29660104809179       -1.27816855159762       -0.08781455248888
H           -6.63995993383047       -2.47388478386206        1.03975381248431
C           -8.27105067506128       -2.24918098806818       -0.51322753504621
H           -9.29511808728631       -1.88184436264541       -0.36665088214305
C           -8.10177959657391       -2.66841518258468       -1.97707050922686
C           -8.06201744966551       -3.48444211519626        0.38349454854089
H           -7.07178385392608       -2.97024302191623       -2.15735382797056
H           -8.75992610030082       -3.50733847786277       -2.18496558798670
H           -8.34968866460129       -1.84028342702834       -2.63563747649379
O           -7.02057104921995       -3.37592839601892        1.19635919714843
O           -8.76639344101843       -4.45509241136832        0.33214679055185
