42
 energy: -62.486133517973 gnorm: 0.000479335997 xtb: 6.7.1 (edcfbbe)
N           -1.01959899912389       -1.56384363841295        0.34982284788530
H           -0.97163712450364       -1.54667873354011        1.36347333896828
H           -0.07146396591769       -1.55787581829126       -0.00752548033674
H           -2.59912057187005       -2.52333894415740       -0.02709996457067
C           -1.77309214375247       -0.41613530961646       -0.15385507010975
H           -1.57710006984518        0.51844335544873        0.38779431391139
C           -1.46984233243910       -0.20904287467676       -1.63809715671774
C           -3.25461144184398       -0.75146397908317       -0.01389989459915
H           -1.66732022297625       -1.12403154838202       -2.19298410553344
H           -2.09760977555699        0.58522087812728       -2.03059929097241
H           -0.42640452116222        0.06570969267805       -1.77729291345202
O           -3.48425781947882       -2.09620522742218       -0.04878771639125
N           -4.06410714083731        0.18684866067825        0.08249778521514
H           -5.15075867567464       -2.13804531831466        0.01478018767387
C           -5.48146076358624        0.39216223686810        0.14814789330059
H           -5.64126112066545        0.92030618328840        1.09599803905790
C           -5.71596283759046        1.40095195104957       -1.00938410290136
C           -6.49467686795847       -0.74733320053889        0.10399848370349
H           -4.89277878587176        2.11548856898315       -0.94103295907690
H           -5.60164333386407        0.85524909295038       -1.94921291385122
C           -7.03402146410767        2.17628898775198       -1.04737079729080
O           -6.11852581022973       -2.02764605011777        0.05644131745426
H           -7.84267245013563        1.48089277086390       -1.27785406944753
C           -7.33275990015314        2.87336015793181        0.27625788298722
C           -6.96265376890907        3.20778222534099       -2.17377309363158
H           -6.51444084395240        3.53726220328071        0.54822802274713
H           -8.24003675236864        3.46598963664861        0.18869077523677
H           -7.47491457870494        2.15078511512128        1.07528294937010
H           -6.74167732397372        2.72790889746320       -3.12429012927791
H           -7.91257896147276        3.72773530065064       -2.26729411936179
H           -6.18666424894899        3.94347456746790       -1.97151706243088
N           -7.71883644742672       -0.42196560783646        0.09678153681362
H           -9.12307691749829        0.79716011877770        0.21125196490241
C           -8.74809244114292       -1.43880364530376        0.04034738783857
H           -8.54639163524032       -2.17704527112919       -0.74583068513224
C           -8.91046853839877       -2.17634277952288        1.37670173207682
C          -10.07790149396212       -0.73763901333200       -0.25656693560728
H           -9.08297646384395       -1.46040310207285        2.17843488233832
H           -9.75979024132539       -2.85093001021555        1.31302307593440
H           -8.01242281068341       -2.74737778186305        1.59657955112796
O          -10.05049689924803        0.57051752607471       -0.02493390946450
O          -11.06008275395810       -1.31941592900599       -0.62639673016537
