42
 energy: -62.486133510272 gnorm: 0.000480360517 xtb: 6.7.1 (edcfbbe)
N           -0.74415624445745       -0.12284370164577       -0.07711547455062
H            0.11217659352591       -0.18458129944732       -0.61340814450127
H           -0.63960223003943       -0.72261033071410        0.73651826906987
H           -1.92843464367789        1.22195015509061        0.61764049242591
C           -1.89540982802157       -0.55101833538888       -0.87027683978923
H           -1.79670686084206       -0.10082305243817       -1.86584180731815
C           -2.04342859064194       -2.06424990660530       -1.01856477372558
C           -3.13412942759949        0.06954079786847       -0.23918915804059
H           -2.10240853901381       -2.53496699408405       -0.03833577017138
H           -2.95404121273831       -2.28421497340269       -1.56577519826691
H           -1.19302132359142       -2.47904606313315       -1.55555484982278
O           -2.90069287086243        1.11764889773937        0.56505051582304
N           -4.27056445183932       -0.39589631080895       -0.51430216624597
H           -5.16760250545140       -2.09003171479532        0.54977385116030
C           -5.47316897911230        0.19119585815742        0.05036730220059
H           -5.31110079492432        0.43882945936289        1.11159752439453
C           -5.87668869001308        1.46261772409739       -0.70453618859583
C           -6.52053837667351       -0.89830447155879       -0.02382362549416
H           -4.98670266128511        2.08572027746563       -0.81394434286870
H           -6.20828664984288        1.16556908754315       -1.70018777650697
C           -6.97343100526574        2.27488265228364       -0.00615648408491
O           -6.13147499041215       -2.09722657101049        0.45704617718089
H           -7.74527499250629        1.58477831396645        0.34559300522710
C           -6.41660249669699        3.04307921432841        1.19089605632987
C           -7.60343932814533        3.25034795091173       -0.99888753927219
H           -5.65350531849479        3.74795030245279        0.86699189887336
H           -7.20986274434719        3.59954330338028        1.68478025760636
H           -5.97127548985804        2.37210302735644        1.92107606543111
H           -8.05136679715941        2.72026689692674       -1.83579311364063
H           -8.37901078492685        3.83793597149754       -0.51349933470129
H           -6.85020800929356        3.93324411990814       -1.38680881768780
N           -7.63811813595902       -0.69348965807132       -0.56243511357946
H           -8.67626177954729        0.32072509869215       -1.64032980430388
C           -8.63450163796989       -1.73155311769465       -0.68378037411892
H           -8.19327209182219       -2.69211815599263       -0.97911154770198
C           -9.40761733432829       -1.92452305394659        0.62538677004645
C           -9.62343599284587       -1.27950124340003       -1.76909556579875
H           -9.82080701799064       -0.97377695107012        0.95686761295166
H          -10.21941326007019       -2.62789054691711        0.46329027484196
H           -8.74191051668140       -2.30965793482475        1.39379014824104
O           -9.45481598539780       -0.01719104204906       -2.14391528818351
O          -10.47607726609555       -1.99443952929219       -2.21706207961488
