42
 energy: -62.486133508662 gnorm: 0.000480556665 xtb: 6.7.1 (edcfbbe)
N           -1.61483238484228       -0.60150235766658       -2.11193326651458
H           -0.95006806386167       -1.25722375613684       -2.50318046113933
H           -1.09405743872535        0.20735896365008       -1.78385449376449
H           -3.29520569141033        0.20294020171142       -2.55775815287637
C           -2.35418956837629       -1.20086204568779       -1.00286304772420
H           -2.68747826729143       -2.19329908309361       -1.33328655735453
C           -1.55488139294159       -1.34277805856810        0.29060155094484
C           -3.61872085482754       -0.36858138929038       -0.80219322477966
H           -1.21272920007855       -0.36680447272719        0.62796986333474
H           -2.18616588732252       -1.76899175978541        1.06247403970371
H           -0.69177952058618       -1.98704082231695        0.13471330050529
O           -3.99019494765759        0.33373591268597       -1.87949468251452
N           -4.20684139930159       -0.43611734134892        0.30693377090637
H           -5.74122918034461       -1.85307457096410        1.75443311786162
C           -5.45052506933466        0.23672431773887        0.64128561914996
H           -5.40084712501220        0.38619165040279        1.73025420456221
C           -5.73323388047699        1.57602770823756       -0.04090721477518
C           -6.51461156306959       -0.80250745960389        0.36044248908550
H           -4.85292431877997        2.21224913380217        0.07342925190733
H           -5.88517900820252        1.39811119892069       -1.10381842567198
C           -6.96186854003978        2.28902520100001        0.53701852898551
O           -6.51204627133182       -1.88086662608492        1.17300270214074
H           -7.75769434487471        1.55000611157108        0.67319905769209
C           -6.65638013385288        2.93788770781606        1.88566913810627
C           -7.45211155829338        3.34792464108710       -0.44874710977380
H           -5.87435501511415        3.68669768485055        1.77649754458304
H           -7.54450475014145        3.42748389099500        2.27879405703249
H           -6.32760850139677        2.20303210728626        2.61652430670111
H           -7.74165437144748        2.89108156930552       -1.39170621548648
H           -8.31346478286464        3.87512457094830       -0.04503697704138
H           -6.66680008681722        4.07487150503045       -0.64488031045314
N           -7.27170689777357       -0.68588454707510       -0.63589647657319
H           -7.63782531720993        0.12670980928441       -2.20071943678232
C           -8.24527841479714       -1.68899763471604       -0.99501734966164
H           -7.83656917306556       -2.70485801092490       -0.91978390070617
C           -9.49977103029577       -1.59383552695242       -0.11975783954347
C           -8.64868686168820       -1.41704428694212       -2.45279213376423
H           -9.89497100427773       -0.58012824824581       -0.14679725491056
H          -10.25339788980927       -2.27946986241993       -0.49666049404507
H           -9.25501095510341       -1.85303190624766        0.90735388175518
O           -8.19049123161691       -0.26315699240639       -2.92002517047892
O           -9.32829936381686       -2.16915289216017       -3.09455103801185
