42
 energy: -62.486133513114 gnorm: 0.000480147859 xtb: 6.7.1 (edcfbbe)
N           -0.89155875149680       -0.78009364370226        0.44090204741745
H           -0.59019110452154        0.12539962901161        0.78606655347392
H           -0.07041768527582       -1.27945855796760        0.12140170421986
H           -2.41399431204731       -1.15795615619479        1.51030393332488
C           -1.86033506981722       -0.62256249502714       -0.64388513370256
H           -1.63568022219704        0.20812093047462       -1.32562501508539
C           -1.95818536129995       -1.91783442749727       -1.45139908525633
C           -3.20819313578765       -0.35949735836640        0.00145684152602
H           -2.18081659832714       -2.75672974101578       -0.79505407183691
H           -2.74915940046162       -1.82561477309429       -2.18942763719975
H           -1.01942127391652       -2.11495999479338       -1.96450487915067
O           -3.31634039062649       -0.85604058521558        1.26633185952774
N           -4.09861398372012        0.24401836212642       -0.63585600885971
H           -4.92009005439278       -1.64758663055986        0.85753613494128
C           -5.42207085387117        0.54399111064147       -0.13169569631813
H           -5.34150838675586        0.90328173040268        0.90957324887723
C           -6.01810962143859        1.64241716023420       -1.01749997264059
C           -6.30809331719685       -0.68693938598031       -0.06136429019480
H           -5.20044235889586        2.29910290595027       -1.31845283225556
H           -6.41330834144264        1.17128735774400       -1.91693401900883
C           -7.11252602554273        2.47014772261751       -0.33400755004110
O           -5.80332178828461       -1.80516612078279        0.48614075440668
H           -7.77463489007328        1.78977506309191        0.20920283286363
C           -6.51326742987049        3.46790610955297        0.65591039378636
C           -7.93160292178934        3.21790394181456       -1.38464282054585
H           -5.87480103862170        4.17891129567440        0.13525320763512
H           -7.30195982467697        4.02205597534302        1.15947131741637
H           -5.91749149575900        2.96663501175070        1.41499259576064
H           -8.41007213732389        2.52616082699576       -2.07316400176698
H           -8.70631148992034        3.81421676299942       -0.90852333222431
H           -7.29033246418254        3.88492646402318       -1.95716120690681
N           -7.50322849772437       -0.59822562179929       -0.45063891112583
H           -8.72967038196309        0.24656942591548       -1.46569700528112
C           -8.42445220259949       -1.70784261409621       -0.37244534079761
H           -7.95212264698031       -2.65849211348133       -0.64980669975461
C           -9.02339126137981       -1.84307877867437        1.03212032905061
C           -9.56649283918519       -1.41351000368836       -1.35765163463550
H           -9.46553920447299       -0.89747188644556        1.34006769967577
H           -9.79357080999385       -2.60908427797913        1.02112042999411
H           -8.24739695475467       -2.12014202392512        1.74140571681298
O           -9.53623362282718       -0.17944255335940       -1.84485893169977
O          -10.41124110947784       -2.21712394411213       -1.64002649187633
