42
 energy: -62.486133500177 gnorm: 0.000481398334 xtb: 6.7.1 (edcfbbe)
N           -2.17864825829411       -1.52045123588649        1.46625549765066
H           -1.70529730494834       -0.71537478804876        1.86268450416892
H           -1.50951979410795       -2.27830430149395        1.40565752904592
H           -4.02116772855377       -1.25979533560311        2.04690454148364
C           -2.72755541055181       -1.20266272739742        0.15046259998124
H           -2.05603655633071       -0.61018694348888       -0.48634604373548
C           -3.09901224564782       -2.49595315666874       -0.57702855026645
C           -4.00306476587489       -0.40964256690261        0.37753127362069
H           -3.76719195539527       -3.09221073452284        0.04111754309915
H           -3.59661329624314       -2.25978186269202       -1.51295359535575
H           -2.20651011685211       -3.08054423652243       -0.79025509268343
O           -4.61454236576414       -0.66277636493373        1.54412053164514
N           -4.37997136553194        0.40459209131922       -0.50310891297052
H           -6.93983402917378        0.62923483997338       -2.44435918610193
C           -5.64709622585295        1.11011216133753       -0.40086089914663
H           -5.77168237209069        1.49287716076571        0.62142499484002
C           -5.62507130821650        2.26514436644984       -1.40247963092057
C           -6.75531811046478        0.09486917881182       -0.61119521950244
H           -4.75217806551516        2.87635039864481       -1.16548774239994
H           -5.44871815163687        1.86650766285191       -2.40691414300159
C           -6.87926954933488        3.14973019343443       -1.38436375430289
O           -7.31591017993310       -0.01771961290517       -1.83382774723951
H           -7.77600846633024        2.52197505079879       -1.44362838274630
C           -6.96289134972189        3.96651019304062       -0.09664138418399
C           -6.86352419651000        4.08403421799471       -2.59400078342341
H           -6.07200086792745        4.57940478819594        0.02289820369916
H           -7.82928390405660        4.62327716686172       -0.12476861678278
H           -7.05872961044981        3.32047360132922        0.77201978193948
H           -6.84428955348013        3.52154173457793       -3.52556650381034
H           -7.74781733737937        4.71655547565255       -2.59794736439706
H           -5.98470333290687        4.72444455329859       -2.56350900133764
N           -7.04457201593189       -0.66175366424922        0.34962271742726
H           -6.60768082962102       -1.24846587248929        2.03022622424480
C           -7.99635671699041       -1.74117728093843        0.27148916893025
H           -8.98839750841497       -1.37821858621202       -0.02476131920549
C           -7.56862352641394       -2.85374032255610       -0.69331320511767
C           -8.09047290060343       -2.34579505954568        1.68281811444810
H           -6.56336308911299       -3.19095066974987       -0.44678739334021
H           -8.25678504611034       -3.68928319995465       -0.60045263243071
H           -7.57817505807600       -2.48811349834733       -1.71644121911602
O           -7.14751974028676       -1.92317016797522        2.51154364121851
O           -8.92478703826385       -3.15358846272724        1.98915667140768
