42
 energy: -62.486133518205 gnorm: 0.000479196737 xtb: 6.7.1 (edcfbbe)
N           -0.95868133420432       -1.19736818124779        0.58529586953795
H           -0.70573302922066       -0.58530629234128        1.35361904178751
H           -0.10389645086321       -1.53287307919764        0.15782015932021
H           -2.56350435996883       -1.99444972589011        1.13295726010258
C           -1.79073483772521       -0.49399111999906       -0.39048416294713
H           -1.51551075952060        0.55890872124665       -0.53264899744314
C           -1.73547176028459       -1.21100145483119       -1.73976477059357
C           -3.22565939384247       -0.54978099070555        0.11746632228835
H           -2.01979917462040       -2.25504584966903       -1.62436112728086
H           -2.42018009264456       -0.73224580816787       -2.43321138665831
H           -0.72947350255811       -1.16600293851769       -2.15129647209843
O           -3.44692259002711       -1.59522412546511        0.96607273415456
N           -4.03261247540852        0.31828322782746       -0.26794642813433
H           -4.98453786830706       -1.93161876179913        0.27194488893795
C           -5.43679804071444        0.53817057098484       -0.01257008107261
H           -5.52430317363051        0.92950798347664        1.01255679013256
C           -5.78756100647742        1.66654719590214       -1.00702835743600
C           -6.38333820089464       -0.65252751120401       -0.09012179849455
H           -4.98097842988843        2.39500838075292       -0.90102862344457
H           -5.71635297100833        1.24903294080093       -2.01262375379916
C           -7.12675513036092        2.39464351792627       -0.86706246448626
O           -5.90420362702144       -1.90365415954398       -0.03991935347431
H           -7.91541452499763        1.75007070899693       -1.25761299370366
C           -7.44915959884779        2.75817497658622        0.57919432904131
C           -7.08969505286140        3.65899153150545       -1.72633418009734
H           -6.64760780811794        3.35556259486125        1.00958887250846
H           -8.36712099679634        3.33973719282618        0.62133569067412
H           -7.58469905222657        1.86491568610155        1.18327941928484
H           -6.83929279728626        3.41631940737200       -2.75617663131911
H           -8.05954524491209        4.15008629652693       -1.71728933014901
H           -6.34696741938573        4.35853305886460       -1.34784378505450
N           -7.62090218412119       -0.42980978171682       -0.22338944972778
H           -9.15721348432287        0.65890240169929       -0.19827454066177
C           -8.55691232622060       -1.53340269236560       -0.29957334872838
H           -8.23813789852331       -2.28502918537612       -1.03140390463702
C           -8.75761986586184       -2.21967110376636        1.05948442866834
C           -9.91685056966782       -0.96647885140273       -0.71844374045386
H           -9.04967309129384       -1.48525853754609        1.80823832618826
H           -9.54061398491640       -2.96770987940449        0.97113101175638
H           -7.83541370759440       -2.70086184650829        1.37388651821841
O          -10.03556133585910        0.33891799858069       -0.50056994282777
O          -10.80478210419356       -1.64302843879557       -1.15795687775039
