42
 energy: -62.486133521345 gnorm: 0.000478716719 xtb: 6.7.1 (edcfbbe)
N           -1.33177194350824       -1.53416794767328        0.42344581367790
H           -0.38926260973458       -1.72496791410957        0.10505068978482
H           -1.76046561566010       -2.42703827070400        0.65346684460629
H           -2.31199762869235       -0.40710190611452        1.63024291205458
C           -2.11064008632774       -0.87075343324724       -0.62289060115359
H           -1.48813733695397       -0.06532477107850       -1.03257798751002
C           -2.56632600890007       -1.78427339389499       -1.75785692851490
C           -3.30152493566347       -0.20325957374100        0.04783555987393
H           -3.13709480510660       -2.61995039276688       -1.35797527005984
H           -3.21158039553025       -1.22469804452929       -2.42580145877139
H           -1.71013256491108       -2.16882803433393       -2.30880587414669
O           -3.17537250924487       -0.02042042030268        1.38139345740175
N           -4.28785534162230        0.14764681990966       -0.64407184430468
H           -6.68376828952253        0.46489543796752        2.00529215830186
C           -5.41191649926627        0.82057429120518       -0.03926982162639
H           -5.13640407441481        1.27037701774321        0.92843382061146
C           -5.88935856074958        1.89972022663001       -1.02435194509573
C           -6.52384044756768       -0.18047061913084        0.17114249438851
H           -5.05952772964771        2.58365138310102       -1.21098763859701
H           -6.11719334951047        1.37876719366632       -1.95420973071310
C           -7.11615359155439        2.68791381166115       -0.55493002912983
O           -7.13261720000719       -0.15309426811706        1.41512742425585
H           -7.88828388702794        1.98374460064945       -0.22500889468285
C           -6.77831978214285        3.63100378362482        0.59917115746308
C           -7.68427909559531        3.48757580801277       -1.72560249431019
H           -6.02836876231826        4.35408913347102        0.28511307346882
H           -7.66624926126979        4.17449875771725        0.91422931473456
H           -6.39030634788787        3.09412317220019        1.46212281820468
H           -7.98612145856309        2.82148541382827       -2.52959995359715
H           -8.55366830982598        4.05957842487797       -1.41005436895463
H           -6.93781452272903        4.17891998518557       -2.11078073419544
N           -6.83778007173951       -0.95951680755842       -0.75167209256025
H           -8.82557072849013       -0.38902481812106        0.80406718678170
C           -7.85474379310177       -1.97675963734436       -0.73301218983476
H           -7.72092967627296       -2.53635214221922       -1.66606344414705
C           -7.76519785988187       -2.94840131532641        0.45229635988105
C           -9.27270127339633       -1.38576793321319       -0.77835609192072
H           -7.94396924717762       -2.44256529861509        1.39868254694908
H           -8.50159093886801       -3.73870798790521        0.32923551686686
H           -6.77201313453201       -3.39115619089745        0.47915324234941
O           -9.57353596416882       -0.52249961108628        0.19208951053040
O          -10.07180561780645       -1.69549017503044       -1.61477732693163
