42
 energy: -62.486131207078 gnorm: 0.000613343860 xtb: 6.7.1 (edcfbbe)
N           -1.45557371434204       -1.50537017412805        0.56514895296904
H           -0.93314290466151       -0.72816687955978        0.95670046626481
H           -0.78797459457909       -2.19879027148062        0.24834218982063
H           -3.13596347879467       -1.47525620574225        1.54727112739145
C           -2.29545059066106       -1.05390912149247       -0.54449513655990
H           -1.80851410449328       -0.33054289339523       -1.21171696195605
C           -2.76133085189201       -2.25856555164355       -1.36392725114617
C           -3.52189240569950       -0.39895214204145        0.05730155162028
H           -3.23884234145962       -2.99012281420536       -0.71492401693843
H           -3.47445242460795       -1.93180788602904       -2.11475416709617
H           -1.91520944363531       -2.73039075288161       -1.85883055343240
O           -3.85833191162726       -0.86930857583593        1.28358897779310
N           -4.13456724873684        0.48978240335612       -0.58010980028988
H           -5.81181517270933       -0.17036316908492        2.00216019123214
C           -5.37188517013430        1.06656261106381       -0.08509077684770
H           -5.17343112970828        1.58054064744516        0.86783587580924
C           -5.86800471676577        2.06402743279328       -1.13344866017776
C           -6.39186585127025       -0.02501155890589        0.15709149984661
H           -5.06616839945843        2.78027119783556       -1.31793375144325
H           -6.03977732563389        1.49740757765081       -2.04750886845687
C           -7.15143799704961        2.80328598039247       -0.74522685983348
O           -6.58209215213856       -0.40729674133805        1.46806188673157
H           -7.92364589269143        2.06252740266561       -0.51289262677264
C           -6.95125314758128        3.70437957182070        0.47226962225025
C           -7.63038558560370        3.63515036145587       -1.93319729227141
H           -6.12820694989209        4.39575115705628        0.30183969520080
H           -7.85185218816817        4.28429791766782        0.66056675722585
H           -6.73780904841995        3.12566454385020        1.36777993987928
H           -7.80360490026627        2.99870709499775       -2.79682992520275
H           -8.55957033442074        4.14599414053844       -1.69226661783061
H           -6.88508734626706        4.38238840124318       -2.19798117641946
N           -6.98335559166293       -0.53020732685755       -0.82214760736065
H           -8.37033024123116       -0.60747957405965        1.35403028782763
C           -7.92810195759564       -1.61523690299024       -0.80239777843483
H           -8.10052611048473       -1.86710590672176       -1.85541428154663
C           -7.43859450754806       -2.86772431026639       -0.06124274910211
C           -9.29276013133503       -1.20731593015273       -0.22456833047974
H           -7.30475658880958       -2.67532622960823        1.00102489988375
H           -8.16207144671012       -3.66923596353351       -0.18737377296984
H           -6.48506266344528       -3.18172558235461       -0.48077920081582
O           -9.27482097746226       -0.67234176494623        0.99480661991757
O          -10.31667171891070       -1.38120992886354       -0.82182715354064
