42
 energy: -62.486133514245 gnorm: 0.000479758471 xtb: 6.7.1 (edcfbbe)
N           -2.08614289628745       -2.15595182584175        1.05663553871170
H           -2.13968043082759       -1.90319120719155        2.03811991783108
H           -1.18449519115340       -2.58922335699467        0.89557302966098
H           -3.97394556045761       -2.44865433719757        0.63643520957113
C           -2.25299131184548       -0.97557886785061        0.21204935791233
H           -1.69565505585964       -0.09362542787930        0.55667354417942
C           -1.83102168068263       -1.30651354759657       -1.22066059063013
C           -3.73469405430977       -0.63573704247243        0.21119499405396
H           -2.40003518059543       -2.15624447695090       -1.59275748770756
H           -2.00781203706867       -0.44815623317391       -1.86207324189510
H           -0.77257437796644       -1.55568698850750       -1.25441273192421
O           -4.54617516079839       -1.68681596931636        0.41264205354894
N           -4.08508333135488        0.55260703047409        0.00578905204490
H           -5.51544222908303       -0.25399438122880       -2.12066019963901
C           -5.46405001002247        0.98947983168438       -0.05817524777873
H           -5.74168661606327        1.32657745861210        0.94656017753674
C           -5.52846324251804        2.17969296324980       -1.02926238898731
C           -6.43971562293306       -0.09280525119780       -0.45674901816610
H           -4.88654749979919        2.96425245718089       -0.62678343029925
H           -5.10000526207488        1.87993297991218       -1.99062589693583
C           -6.94207617687533        2.72652982657697       -1.25620142341578
O           -6.28406744977657       -0.63894170756916       -1.68118797549794
H           -7.56983226842940        1.92742157446639       -1.66700475572329
C           -7.57646766523732        3.21222123869580        0.04441320633071
C           -6.88559018525662        3.86583952659351       -2.27294712657210
H           -6.92673648929508        3.93106431074579        0.53900205703099
H           -8.52787284574818        3.69602339914650       -0.16310142686960
H           -7.76239779242808        2.38167797075582        0.71962824798064
H           -6.44710186127702        3.53015682899225       -3.21034289580282
H           -7.88498007156120        4.24057218289348       -2.47935253164688
H           -6.28435503357008        4.68625969007252       -1.88706438566061
N           -7.35290176478231       -0.42809637098370        0.34241488500012
H           -8.32787008685624       -0.13926327334147        1.84055407598009
C           -8.31764673153569       -1.45122048628653        0.00327640693622
H           -8.69075749245284       -1.33610359012831       -1.02219800361284
C           -7.72713811705560       -2.85663972335120        0.16105954992197
C           -9.49203141308807       -1.30899571054012        0.98032515417624
H           -7.32099439451028       -2.97514054916809        1.16324669755684
H           -8.50656228102719       -3.59547056670130       -0.00202893153954
H           -6.92790061605997       -3.00083800749907       -0.56062756277886
O           -9.23299624946539       -0.49665988429045        1.99921937168414
O          -10.53169748074885       -1.89278635688075        0.84834006475167
