42
 energy: -62.486133510407 gnorm: 0.000480273415 xtb: 6.7.1 (edcfbbe)
N           -1.26508856091311       -0.70700903161320        0.19472997589085
H           -0.55111488884886       -1.40383135446515        0.01918775975184
H           -1.21191905167646       -0.45783902140186        1.17906072990248
H           -1.95172445096457        0.91740168623788       -0.54791419674818
C           -2.59534747626961       -1.23612301234169       -0.10619971590120
H           -2.53967921903874       -1.70575188396933       -1.09706796764944
C           -3.12565134258838       -2.25094720805539        0.90217680902162
C           -3.53609183638295       -0.04152020405918       -0.24423138937386
H           -3.14819652975535       -1.81250504879511        1.89737081590455
H           -4.13818401919215       -2.52825943712739        0.63135867172265
H           -2.49588958197178       -3.13805046876393        0.91829142309166
O           -2.91147111133649        1.11152011859669       -0.56325907363871
N           -4.76103653366544       -0.23061922313277       -0.07012135611804
H           -7.07747501027650        0.72781158168515       -2.32471823833177
C           -5.83637266464051        0.72694653744786       -0.16769917770947
H           -6.04583994772007        1.03862539778648        0.86408085844130
C           -5.60500116494852        1.97250732722169       -1.03231036350961
C           -7.02573682576784       -0.12015278841693       -0.60389427765741
H           -4.69330959435176        2.45964491285897       -0.68715346032835
H           -5.41457560815858        1.67064573690586       -2.06894529424778
C           -6.75891998526756        2.98574075528150       -0.96316650743599
O           -7.52912332913294        0.02135431882477       -1.84525110946203
H           -7.72116210691505        2.46229825929085       -1.01199911971985
C           -6.71877425250576        3.76677503150845        0.34878506951437
C           -6.67252889947634        3.95218822969903       -2.14428728076976
H           -5.78347223541679        4.31607380425886        0.43358146509324
H           -7.53957055015569        4.47912497391441        0.38877847830002
H           -6.80770418920455        3.10231408448092        1.20454600482427
H           -6.75252076296654        3.42569727686052       -3.09384133371858
H           -7.47481283584838        4.68461098786887       -2.09571525537350
H           -5.72288135914521        4.48264748063266       -2.12662654163428
N           -7.44836994424897       -0.98357819376864        0.20740264074684
H           -7.38204744680391       -1.72701884272097        1.83391869713547
C           -8.51101206558085       -1.90814769225627       -0.10953034317162
H           -9.39089869275806       -1.39336893676208       -0.51540430655744
C           -8.06635020180165       -2.98645788398080       -1.10425005502008
C           -8.90052705331157       -2.60060192317570        1.20702083985353
H           -7.16252328998306       -3.47197461448965       -0.74186916647136
H           -8.85470162676915       -3.72716621552434       -1.20505434748957
H           -7.86351133526238       -2.53833024847484       -2.07317261105547
O           -8.05175462457586       -2.35801487729592        2.19688195476900
O           -9.86331905345772       -3.30868622512366        1.31544546347379
