42
 energy: -62.486133509827 gnorm: 0.000480064043 xtb: 6.7.1 (edcfbbe)
N           -1.96990452968136       -1.46324029855230       -0.65992802250959
H           -1.36767600893923       -2.26471288407179       -0.51581740122426
H           -1.39164155699882       -0.63037985619963       -0.58370082934203
H           -3.34754557698470       -0.87173372736001       -1.86768766199389
C           -3.03307345539117       -1.42155283689061        0.34522710492814
H           -3.46277157699344       -2.42988803437226        0.40772138427272
C           -2.58465791758833       -0.98108943396269        1.73599383190624
C           -4.13285450484464       -0.52232750076373       -0.19822038452899
H           -2.12316400461393        0.00283262931542        1.68749493790459
H           -3.45005814110081       -0.92148971043520        2.38603070134235
H           -1.86812609758284       -1.68914449629218        2.14757676238886
O           -4.13574134706265       -0.39218909170079       -1.53954748786419
N           -4.96575939778118       -0.01671600904980        0.59464570377930
H           -7.26094904892596        1.03249379850486       -2.04630908893083
C           -6.05999525669332        0.81527826612252        0.12897540574497
H           -6.50799228475063        1.21058326479978        1.05098367673576
C           -5.61925291300596        1.99223375048884       -0.75202832365812
C           -7.10007535566345       -0.09675963197014       -0.50148740592199
H           -4.67583515017819        2.36436971082792       -0.34550874894448
H           -5.40012720357048        1.63861965562318       -1.76374546966989
C           -6.63429908307355        3.14744165331377       -0.78145046458836
O           -7.64462285111154        0.22061052721255       -1.69118905114318
H           -7.65463348725774        2.74460897157538       -0.79609658402210
C           -6.49779546300692        4.01949382187685        0.46504283388819
C           -6.42939993772919        3.99654127716576       -2.03602543489186
H           -5.51591443576220        4.48739295396285        0.49333279209522
H           -7.25115571365690        4.80395739991637        0.46375946413159
H           -6.62233556702328        3.42952886661437        1.36968536859833
H           -6.57983067948634        3.41141531263330       -2.94197081173285
H           -7.13009534677580        4.82793826652550       -2.05080838665886
H           -5.41961289259487        4.40104037194850       -2.05567052519748
N           -7.40530798011337       -1.14208561334923        0.12995001145835
H           -7.27205607215860       -2.11980694812138        1.62912126372508
C           -8.35140124929671       -2.11282570824305       -0.36482744056741
H           -9.29672096009824       -1.64180291941577       -0.66389820778035
C           -7.80087787547697       -2.91174758913778       -1.55130428620187
C           -8.62951388614907       -3.08692394425104        0.79211780484673
H           -6.83348218292776       -3.33816628322135       -1.29163259135293
H           -8.49157132576613       -3.71490045316000       -1.79286246125281
H           -7.68178106133214       -2.26288349118293       -2.41516108362182
O           -7.84086153621999       -2.89989148226271        1.84177477801683
O           -9.46572036607186       -3.94614840573691        0.73637963673455
