42
 energy: -62.486133506154 gnorm: 0.000480966108 xtb: 6.7.1 (edcfbbe)
N           -2.33150226731125       -0.99688740494884        1.89286261014004
H           -1.91672363211860       -0.12922814321567        2.21337870963013
H           -1.62229209065342       -1.71924621061588        1.92909508262944
H           -4.17717440939254       -0.87336261688655        2.40186334917913
C           -2.86434186108170       -0.85323144183246        0.53953646235622
H           -2.23557751072108       -0.24755346586778       -0.12738502965997
C           -3.07530907031509       -2.23537365824530       -0.08188591564471
C           -4.22427222662038       -0.18874101165868        0.65949757633760
H           -3.67713890492950       -2.85637417338024        0.57801710202811
H           -3.58725612785934       -2.13043714378021       -1.03368911396289
H           -2.11759787373052       -2.72462070658026       -0.24794474440507
O           -4.83541211914055       -0.40767145761258        1.83988764447260
N           -4.64966644457106        0.51234264368924       -0.29073645434840
H           -8.33148393159178        1.39953764983596       -0.72259563607510
C           -5.97858365104728        1.06453933002582       -0.34184193332395
H           -6.11237620704529        1.76715537405852        0.49968717929643
C           -6.12418718848571        1.82369050775848       -1.67873747812138
C           -7.08262559490378        0.03944959214438       -0.17193008351093
H           -5.14530764449067        1.79795139314654       -2.15821587502297
H           -6.81448624532727        1.28873157056079       -2.33629339954464
C           -6.57019281319207        3.28495652358282       -1.53205966394289
O           -8.33665253690528        0.47543739257230       -0.44367485722669
H           -7.42199060910006        3.34535111304344       -0.83966021620408
C           -5.43767207092990        4.13866251046234       -0.96692065405151
C           -7.01814576797182        3.83448401107048       -2.88518082214545
H           -4.60364979476732        4.16024546971154       -1.66423078947519
H           -5.77468631157039        5.15927465501504       -0.79958073878933
H           -5.07865941235876        3.73602394636002       -0.02312267288887
H           -7.86147575518938        3.26950398388759       -3.27754792807296
H           -7.31839612261573        4.87567450103430       -2.79280579995565
H           -6.20325462634339        3.77505467849390       -3.60280860830682
N           -6.84359479881697       -1.12794550101898        0.22236502978719
H           -5.86296561183972       -2.08086640082087        1.45580338860168
C           -7.88568757812247       -2.11525921462244        0.38235069737629
H           -8.76214408371686       -1.69497113612890        0.89614386057031
C           -8.33571038473858       -2.69574391563272       -0.96037187838682
C           -7.32250518326346       -3.24122799029939        1.26329803637443
H           -7.46845887718142       -3.02935402724974       -1.52628902458529
H           -8.98922713069509       -3.54396110074211       -0.77706068630861
H           -8.86860075604057       -1.94301479157254       -1.53552489347021
O           -6.12079011396107       -2.98448449737565        1.76361654755761
O           -7.91841591218534       -4.26053649998692        1.47962636496239
