42
 energy: -62.486133518645 gnorm: 0.000478959242 xtb: 6.7.1 (edcfbbe)
N           -1.53440215030191       -0.88263547503417       -2.03808189279402
H           -0.70710776023264       -1.44497845544314       -2.19489813273331
H           -1.26518811230475        0.09226540916672       -2.13894496043072
H           -3.37328509685994       -0.75599860981756       -2.59294251181405
C           -2.07971977738300       -1.11011194553393       -0.70139230432445
H           -2.10769693088773       -2.19657832502403       -0.54359090403723
C           -1.29180550467234       -0.45838104326612        0.43241006870030
C           -3.52418533159699       -0.62423626388980       -0.72039266627845
H           -1.22577483923272        0.61555888538109        0.27116330775268
H           -1.80373075552111       -0.63056789664224        1.37293585830243
H           -0.28694814510460       -0.87223687469849        0.48493290611509
O           -4.07170859073087       -0.53455518329709       -1.94414297257001
N           -4.10130624893454       -0.36072103946080        0.36888636961893
H           -5.10460273301563       -2.19570582525129       -0.22102037378069
C           -5.47346833365680        0.10806299977981        0.42918559239637
H           -5.71909962165055        0.12498715555992        1.49920835018956
C           -5.50523363662839        1.54951203172006       -0.11559726799769
C           -6.45802417918339       -0.84364333867677       -0.22771407578745
H           -4.73303920672486        2.09209495881026        0.43768636197129
H           -5.20410752073124        1.51445703037620       -1.16417917180272
C           -6.82123198114745        2.32360339776053       -0.01473119888956
O           -6.03315712260860       -2.09975471494427       -0.47383166631940
H           -7.52111394991587        1.90311724508395       -0.73900996876687
C           -7.43850375781299        2.24985081725324        1.37841322583885
C           -6.56497774186475        3.78143304683567       -0.39753580008570
H           -6.73316004217933        2.60548912144161        2.12700300014691
H           -8.32841052361280        2.87321460653180        1.42500952011964
H           -7.72272615348853        1.22988756192787        1.62216482749276
H           -6.11311689096646        3.84694591876491       -1.38459130135648
H           -7.49928534598049        4.33687976906624       -0.41275456679251
H           -5.89626232602353        4.25441036382716        0.31917519947608
N           -7.65291487315719       -0.49262000228384       -0.42196822962682
H           -9.08734405558088        0.71316122321639       -0.33026411331900
C           -8.61533815256883       -1.42256521371751       -0.97531111012166
H           -8.21478465029326       -1.94914397240833       -1.84965929982402
C           -9.07145145951368       -2.45891494327514        0.06093957266700
C           -9.85272117634934       -0.62058786270410       -1.39374259251567
H           -9.44430916204212       -1.95603010305093        0.95150890786466
H           -9.86637916194196       -3.06531096260243       -0.36414538918871
H           -8.23829746905822       -3.09955608571944        0.33732644613735
O           -9.91950457034785        0.58321610356159       -0.83614060742068
O          -10.70076622439958       -1.05533922110605       -2.12243130731162
