42
 energy: -62.486133513010 gnorm: 0.000480123220 xtb: 6.7.1 (edcfbbe)
N           -1.46160747653267       -1.03725525808146       -0.82909536808288
H           -0.81262787847626       -1.81435696844779       -0.85398987402643
H           -0.98654154185061       -0.25766952755132       -0.38163879404318
H           -2.67972870646405       -0.13312450605367       -1.99011942954111
C           -2.66340395525116       -1.38301892441450       -0.06976668850150
H           -3.00298345235421       -2.36395003915547       -0.42699394741909
C           -2.47404510442400       -1.43735805001070        1.44312795452184
C           -3.74474548714047       -0.38424178125358       -0.46341853100405
H           -2.09289104344912       -0.48549289664893        1.80720791643558
H           -3.43198690844303       -1.62434217949125        1.91552074280653
H           -1.77485416865033       -2.22646884770635        1.71223130282105
O           -3.56006232423143        0.16862260453228       -1.68374461287572
N           -4.71204023521762       -0.19885006377662        0.31267553582377
H           -6.24794374816621        0.38775239520490       -2.32258590234483
C           -5.82337980434619        0.69798826063082        0.06687761123965
H           -6.19923945445348        0.92478105790291        1.07142259476443
C           -5.52322875744359        2.01072157747250       -0.66326609269302
C           -6.87631023166576       -0.16579670339544       -0.59952807442190
H           -4.73826693769389        2.52602961839576       -0.10448472328202
H           -5.11964517127754        1.81942310102846       -1.66087877945214
C           -6.75064804331242        2.92541624952364       -0.77838597982656
O           -6.92198626967328       -0.19366140537310       -1.94558317072985
H           -7.59085853932856        2.34773006355901       -1.18127839556388
C           -7.16587774476649        3.48984900972253        0.57827899648829
C           -6.44371338547502        4.06943454266712       -1.74462106423499
H           -6.33839528431482        4.03006394406319        1.03363023623276
H           -7.99814431828858        4.17917293170423        0.45646660038220
H           -7.48058657651541        2.70056815641035        1.25555994124268
H           -6.19201931831129        3.69129636146087       -2.73352291373624
H           -7.30469118403244        4.72624514836601       -1.84147375513006
H           -5.60443408607624        4.65720232869402       -1.37845941117686
N           -7.58087960304271       -0.91235627925354        0.12870972865683
H           -8.19880714460116       -1.37104547294359        1.76536953162630
C           -8.52956728845278       -1.85422906634242       -0.41963057487854
H           -9.14074736058637       -1.40739742025820       -1.21360050561760
C           -7.83225019713899       -3.10216092735386       -0.97368290617937
C           -9.44815227599895       -2.28926816564451        0.73283162002006
H           -7.17906673538094       -3.52705012046803       -0.21403204373674
H           -8.58167930614569       -3.83708807495926       -1.25388438700363
H           -7.23839288013046       -2.83958880855569       -1.84545956554490
O           -9.01390649605649       -1.90396741403513        1.92566485362068
O          -10.44585483426673       -2.93458425583533        0.56648555649769
