42
 energy: -62.486133525226 gnorm: 0.000478569087 xtb: 6.7.1 (edcfbbe)
N           -2.57557148412409       -1.79465595862671        1.94795811372140
H           -1.68727321563742       -2.26732157167178        2.06487939844971
H           -3.29734132117824       -2.51096194592912        1.92127661671736
H           -3.62820360272462       -0.30848903891914        2.62697098443648
C           -2.59776363365222       -1.04017746689032        0.69514276614097
H           -1.70691460563891       -0.39690286840589        0.68956028216360
C           -2.61042724591258       -1.89648336459061       -0.56838286444991
C           -3.79933789457608       -0.11542928828392        0.76717364485962
H           -3.40101935161712       -2.64011339996100       -0.50768911817477
H           -2.79446529752273       -1.26299225088736       -1.42876868259689
H           -1.65668308644272       -2.40619229532787       -0.68900845476142
O           -4.17951827677604        0.21950836876520        2.01500216936822
N           -4.36750436077691        0.28661495959408       -0.28063003474078
H           -7.44160375328647        1.91197565692616        1.16319507666188
C           -5.50852350239885        1.17131669523817       -0.16786987939647
H           -5.31574488090581        1.96071555047604        0.57467238199412
C           -5.75214303210794        1.77658915330969       -1.55954239089305
C           -6.70768204001750        0.36754026383695        0.28118320348934
H           -4.83244802630467        2.27758883398482       -1.86595356761672
H           -5.91446543377105        0.93865820718166       -2.23854620482822
C           -6.92760950758816        2.75398239583364       -1.65404110507856
O           -7.67976432942132        0.99538479914972        0.97833590942755
H           -7.82318787532665        2.28137228034715       -1.23533891899307
C           -6.64788236001710        4.05410222605134       -0.90046872322068
C           -7.20924553215234        3.06615552637780       -3.12320463465589
H           -5.78776621426213        4.55918848983825       -1.33486870695106
H           -7.50445527742657        4.72144215495944       -0.96665450808128
H           -6.43810804296541        3.88057267623321        0.15309117433881
H           -7.45790203855100        2.15839322858979       -3.66732845840660
H           -8.04253000621181        3.75926664079580       -3.21323246448410
H           -6.33549257236296        3.51700096548821       -3.58844772004073
N           -6.74325258810752       -0.85612632313330       -0.00053866751889
H           -5.68828700437603       -2.24093866723509       -0.26676362701814
C           -7.76849681860815       -1.76188229094195        0.44508461900750
H           -8.20317025140456       -1.46800757051389        1.40935684761302
C           -8.88789311962263       -1.89370945226477       -0.59145763314793
C           -7.07672701685168       -3.12677897202935        0.60578803128906
H           -8.46633301181132       -2.13910787749976       -1.56394635212307
H           -9.56936971650883       -2.68304963161920       -0.28688189823548
H           -9.43274497476324       -0.95588988251004       -0.66855711080360
O           -5.85136060761953       -3.15331953796355        0.09053133551149
O           -7.58997836252837       -4.07086513238446        1.13785405710110
