42
 energy: -62.486133508203 gnorm: 0.000480425897 xtb: 6.7.1 (edcfbbe)
N           -2.08073426368457       -0.90093100011772       -1.82768662878028
H           -2.11763342082420       -0.05297495172406       -2.38400682325188
H           -1.97743947948325       -1.68362106246239       -2.46334446963733
H           -1.36257516296751       -0.36971430573580       -0.15764371601854
C           -3.30639470509101       -1.04803694350574       -1.03337233768495
H           -4.22129957228487       -0.83351839124997       -1.59406697191403
C           -3.36654661377123       -2.47127777092271       -0.47807420933414
C           -3.18126374843407       -0.08371903632724        0.14934251617138
H           -2.47038989596817       -2.68449303804653        0.10126509552301
H           -4.23695767174580       -2.57635208422986        0.16110944611460
H           -3.43877050852366       -3.19128046848241       -1.29067299281452
O           -1.90393446315277        0.07665939295043        0.52847747111411
N           -4.02840994221726        0.56988212408476        0.80471428486677
H           -7.71061719488959        0.53877819825309        1.47649000922712
C           -5.43588460640643        0.76300036644070        0.78763420972829
H           -5.69481327099279        0.92784386205324        1.84493135151432
C           -5.65051940316868        2.08907679199173        0.00089840007426
C           -6.41639126075824       -0.25871542509970        0.24828114768272
H           -4.85151141386556        2.76220684129122        0.31743769591031
H           -5.49158118050801        1.85839888430690       -1.05502066247640
C           -6.99497136864227        2.80576987470101        0.16407468351908
O           -7.68132740506551       -0.15320619291814        0.80394975682603
H           -7.81532832308254        2.12906898855845       -0.09935495996449
C           -7.19687455747958        3.32519297697470        1.58736509466520
C           -7.04701939419678        3.97832604151249       -0.81597715447791
H           -6.40894038083842        4.03134330134774        1.83917015927522
H           -8.15344033243821        3.83674633122845        1.66906464365222
H           -7.17785159750910        2.52942105714786        2.33007330434896
H           -6.94888300923985        3.62690374389337       -1.84008000912306
H           -7.99327024637848        4.50625184329741       -0.72578813940991
H           -6.24064128685432        4.67933388051851       -0.61295901458121
N           -6.11500909359132       -1.12799548719176       -0.59545161408007
H           -8.63888491721374       -0.45232977740400       -0.71911184484702
C           -6.97611335997486       -2.13456806391826       -1.16609770764542
H           -6.31088039909822       -2.78453375623599       -1.74655799823046
C           -7.74178257355134       -2.98823472818416       -0.14825497134067
C           -7.96385655492552       -1.51670211831850       -2.16799781963142
H           -8.45524346148670       -2.39718014104331        0.42126723274171
H           -8.27549378777101       -3.77772299508484       -0.67158475070693
H           -7.03737811114064       -3.44051024198015        0.54663050756917
O           -8.79843772537064       -0.60580276094485       -1.66977127166322
O           -7.99088891320320       -1.83542522211308       -3.32215570309124
