42
 energy: -62.486133517018 gnorm: 0.000479073337 xtb: 6.7.1 (edcfbbe)
N           -1.30681500215202        0.16035986611166        0.40431205855070
H           -0.45103234259335       -0.23825004357641        0.77511015635106
H           -1.97540364080283        0.25152419798221        1.16195712147844
H           -2.95670293912567       -0.33087295325818       -2.78554769796305
C           -1.86718276161159       -0.70371508600853       -0.61499602276707
H           -1.27589832546858       -0.55671643746807       -1.53238284826889
C           -1.85753067090929       -2.20135154994673       -0.25278561573282
C           -3.30159401273029       -0.29522380668180       -0.86512473423909
H           -2.44910260506356       -2.35933317985025        0.64591710279507
H           -2.27783421698827       -2.80071149262824       -1.05742598901881
H           -0.83737434375534       -2.53288358279834       -0.07130501957308
O           -3.70493549030618       -0.25247411775605       -2.18092252291007
N           -4.03915985110157       -0.08472824136734        0.11995970861096
H           -5.21521577925332       -1.19877490828976       -1.78711358187470
C           -5.41317390081627        0.34914878216706        0.14846670585258
H           -5.64863822018596        0.48469551762563        1.20780008961732
C           -5.55188560045476        1.70419951044464       -0.58536645114485
C           -6.42006528383218       -0.63352211564412       -0.41378952757525
H           -4.74638994107219        2.34723897050341       -0.22189585143418
H           -5.38598325404374        1.53362795875060       -1.65215622179090
C           -6.89229708853991        2.41830661549881       -0.39727830631804
O           -6.06061645173485       -1.47210211320158       -1.39774487804431
H           -7.69716080122445        1.74340183267210       -0.70210336211496
C           -7.12288645290577        2.83010459180121        1.05409594464393
C           -6.93153774300190        3.65168209368819       -1.29924863913674
H           -6.32881271333550        3.49360009840266        1.39079682876785
H           -8.07066101506012        3.35454186142220        1.14511485590564
H           -7.15333503737616        1.96487438743725        1.71014211093890
H           -6.79972507323020        3.37434588084817       -2.34273170741290
H           -7.88710083285788        4.16009935736024       -1.20017926067460
H           -6.14161593985326        4.34857067466193       -1.02606653467410
N           -7.60074956072589       -0.56059750280914        0.02759248772114
H           -8.89636410985018        0.36834698132880        0.92156071494201
C           -8.65806279968086       -1.39297504232125       -0.49810666798857
H           -8.60613103454390       -1.48054096752681       -1.59153781519204
C           -8.62431539039470       -2.79992753590281        0.10913547522371
C           -9.99069623380591       -0.73298441709465       -0.11562635018292
H           -8.63168854420861       -2.73552590349338        1.19534394130929
H           -9.49780594436315       -3.35455665148157       -0.22182232873095
H           -7.72318526772252       -3.31791391681797       -0.20954121587837
O           -9.86149583358069        0.26090549489057        0.75514728442275
O          -11.04802920420464       -1.09591851560618       -0.55071830076791
