42
 energy: -62.486133516775 gnorm: 0.000479326469 xtb: 6.7.1 (edcfbbe)
N           -1.36748847916162       -1.44626031361689        0.96939312020408
H           -1.06102193827686       -0.75118201381203        1.64230778497270
H           -0.56483941135330       -2.01010406529427        0.71580432009970
H           -3.20457492863071       -1.70549740426118        1.51685495046362
C           -1.95044749237068       -0.80696193692479       -0.20809707703563
H           -1.42430615455838        0.10358747393963       -0.52749068689734
C           -1.98326745606881       -1.79625888210621       -1.37526330811437
C           -3.37840154650957       -0.43171090235613        0.15172757931797
H           -2.55026078840649       -2.68428540317694       -1.10241319016075
H           -2.44121639843391       -1.32785170918144       -2.24187678882863
H           -0.97215200909720       -2.09796181162352       -1.64077632068458
O           -3.91427517385880       -1.13010857125697        1.16291745379215
N           -3.97226610516038        0.46773526722859       -0.50378308545423
H           -4.92759613024364       -1.14292367396919       -1.57645169542238
C           -5.35434644495704        0.78607941937604       -0.20051619835027
H           -5.45673653659676        1.06698504137310        0.85339405735771
C           -5.73815822598181        1.97085003548146       -1.10631507267974
C           -6.26786362109586       -0.39540993016631       -0.45143094426483
H           -4.99354168557284        2.75038837484908       -0.93554486176761
H           -5.63486180851193        1.64343969612332       -2.14354827475146
C           -7.14016231197397        2.54582252690970       -0.89607490523578
O           -5.81604565051998       -1.37024594093148       -1.26339953527051
H           -7.87276883067736        1.74941127355150       -1.05410183570501
C           -7.32276195021881        3.10369152390129        0.51291495430390
C           -7.39520230894771        3.64373772014624       -1.92808919162833
H           -6.58915545460513        3.88296007840385        0.71030257037600
H           -8.31609621355507        3.53266020636150        0.61831514384980
H           -7.21139220630410        2.32367947508203        1.26087568113534
H           -7.29533281375369        3.25566669571659       -2.93909827255335
H           -8.39988456852380        4.04270632183589       -1.81358077692750
H           -6.68530388626912        4.45857878417164       -1.80125761934622
N           -7.44024480118504       -0.36886510512751        0.00906152186653
H           -8.82557201957466        0.54291701448749        0.78551724595145
C           -8.38618898571688       -1.42580742220140       -0.26944157993413
H           -8.35965677531039       -1.73168565472435       -1.32342253342392
C           -8.13102803957517       -2.65629987039071        0.60821646533585
C           -9.78508421173476       -0.88360461913393        0.05531722870520
H           -8.11613559518116       -2.36665823632706        1.65699013608926
H           -8.92322277317389       -3.38234288477560        0.44859352456318
H           -7.17296664233350       -3.10058779295693        0.35067757072817
O           -9.76980489261493        0.27376552623845        0.70551715444836
O          -10.79455799117869       -1.46407413479857       -0.23378960893489
