42
 energy: -62.486133521881 gnorm: 0.000478901371 xtb: 6.7.1 (edcfbbe)
N           -0.94618973359268       -1.33250598880476        0.49649415056099
H           -0.80234435269103       -0.98157968317541        1.43762903955551
H           -0.03705606443784       -1.45567883390330        0.06684709386845
H           -2.52337916859497       -2.34317587688242        0.63230514263848
C           -1.77062273882723       -0.40955662816989       -0.28260594719496
H           -1.55508087273867        0.64982168953663       -0.09153269417427
C           -1.59966509982645       -0.69317626422279       -1.77541100947950
C           -3.22592248770858       -0.67739247939806        0.08681248673113
H           -1.80799877920822       -1.74053909461109       -1.98474835940165
H           -2.28803457765463       -0.07464745293322       -2.34341821484946
H           -0.58286095170822       -0.46884039166080       -2.09050376364210
O           -3.41905305934027       -1.94503658818684        0.55289520389354
N           -4.05196542256129        0.23870949424000       -0.07211899897088
H           -5.06863859770846       -2.06334145495501        0.29235051873930
C           -5.46803419998100        0.43551489791161        0.08611815424853
H           -5.59310814371374        0.86207298649413        1.09211865961259
C           -5.76301384590803        1.54711060803922       -0.94982353469522
C           -6.44494525691092       -0.73168142643070       -0.00285392550452
H           -4.93524929645353        2.25156709198848       -0.84648531885386
H           -5.68927958712951        1.10010447829165       -1.94289573125568
C           -7.07884259067090        2.32490247874111       -0.85706683547467
O           -6.02393938907961       -1.99525518537723        0.11646288796297
H           -7.87948410212554        1.70329530369557       -1.25951045334354
C           -7.42710984900988        2.72414304605755        0.57344465042691
C           -6.97279046137953        3.57231217041033       -1.73527200616416
H           -6.61367443347938        3.29344580463709        1.01922440936854
H           -8.32014754304162        3.34469759336294        0.57967846745249
H           -7.61914413596291        1.84682973701942        1.18554275185806
H           -6.70357735220114        3.30308171394695       -2.75374979525629
H           -7.92453048773497        4.09704077423998       -1.76144832151363
H           -6.21630518685493        4.25182728398331       -1.34776418961540
N           -7.66812733792525       -0.46743256783380       -0.19329292966892
H           -9.17990298765497        0.66286281806612       -0.24623093952127
C           -8.63664873480758       -1.54227080365479       -0.27438592799343
H           -8.30745025494771       -2.33567797847906       -0.95601801166081
C           -8.92824462484704       -2.16062692999259        1.10086426167492
C           -9.95305759202863       -0.94945448566001       -0.78381763866776
H           -9.23231062935264       -1.38437206844748        1.80122068990815
H           -9.72980889306317       -2.88790495570743        1.00617902320083
H           -8.03834800913985       -2.65452280703851        1.48167432168010
O          -10.04890883202963        0.36245823610024       -0.59194349292922
O          -10.83139559257256       -1.60915420702315       -1.26602866298122
