42
 energy: -62.486133510591 gnorm: 0.000480342996 xtb: 6.7.1 (edcfbbe)
N           -2.59917382244798       -2.44331373560037        0.53732354407382
H           -2.93585478648918       -2.66406467164707        1.46913190019798
H           -1.65222540764665       -2.79195558614110        0.45349880176572
H           -4.24258768570407       -2.46546985103413       -0.37403284966886
C           -2.65177170837400       -1.00464972535794        0.29202973208083
H           -2.28123196115453       -0.39493925663123        1.12733630056067
C           -1.85032873290349       -0.66736377765935       -0.96531733375193
C           -4.11677443600724       -0.64902528587813        0.05509733138040
H           -2.20857030673622       -1.25771898382488       -1.80549450755616
H           -1.96674055791772        0.38667136988346       -1.19645994125509
H           -0.79455985846969       -0.88100805907101       -0.81218514782086
O           -4.84607348141952       -1.68823259052022       -0.39076891785989
N           -4.45219032766351        0.54915665226453        0.19376189126552
H           -8.03145332329160        1.94051912506128        0.22830816594269
C           -5.74865314133681        1.16224600924561        0.08073319448429
H           -5.70455205508145        2.03385539907048        0.74832725561759
C           -5.83638063235114        1.63899982830613       -1.39566533581020
C           -6.96332589937825        0.35096463523184        0.47509167214101
H           -4.83915750267585        2.01427070637238       -1.63972619247146
H           -6.00986520131160        0.75057047733631       -2.00789422482686
C           -6.85315570839562        2.72112438364208       -1.78015602170117
O           -8.14999901037574        1.01232230825282        0.46054005570671
H           -7.87376518136549        2.33416120724061       -1.68120791127577
C           -6.69937829392681        3.98933997566830       -0.94074441040055
C           -6.65224784691168        3.06400256742804       -3.25789622231650
H           -5.68339078664458        4.36903915558527       -1.02387361175957
H           -7.38119907142470        4.75865149949625       -1.29703016897349
H           -6.90961014276551        3.82219420047398        0.11436817133229
H           -6.76295913112698        2.17687505202645       -3.87686121964013
H           -7.38527448054713        3.79982996252403       -3.58040492261979
H           -5.65854318772383        3.47511807378868       -3.42135382659512
N           -6.86394924820129       -0.81906682823776        0.91719602702598
H           -5.89077029600935       -2.37501085162558        1.13526585578751
C           -7.99551330479732       -1.57754767954777        1.38988029771513
H           -8.61236211082343       -0.99952452388993        2.08912691079756
C           -8.87746699522699       -2.07115991296673        0.23662526303290
C           -7.42650840139955       -2.80811365777625        2.10859372524568
H           -8.27048945548250       -2.61067084020796       -0.48783254417307
H           -9.64503428740197       -2.73399713906882        0.62655073608749
H           -9.34830219487900       -1.22409496347296       -0.25549065754207
O           -6.17549117703829       -3.08489677727822        1.76309843299381
O           -8.05939956404202       -3.47133121673628        2.88335334572880
