42
 energy: -62.486133521215 gnorm: 0.000478087242 xtb: 6.7.1 (edcfbbe)
N           -0.92860033925400       -0.68403159129510        0.06678097811068
H           -0.08152996613040       -0.95357667872823       -0.41900305240576
H           -1.04142356309096       -1.31647279492980        0.85471319147108
H           -1.82517142539587        0.91877840378484        0.72042531136167
C           -2.09038689307900       -0.78596700690787       -0.81726030667790
H           -1.82791860577314       -0.27995251392914       -1.75551861468119
C           -2.54544129025376       -2.20967139312525       -1.12532284403560
C           -3.20883570368567        0.02956516909274       -0.18803405877892
H           -2.75151102017870       -2.74524455141986       -0.20074218670278
H           -3.46018072907097       -2.17030094796773       -1.70668245139928
H           -1.77916932999709       -2.74485840092036       -1.68243588232655
O           -2.79446924258014        1.01334337451707        0.63920417659247
N           -4.40405522815417       -0.23379833029877       -0.46607782051916
H           -6.52707808486546       -0.10759356287252        2.14735041066983
C           -5.48537500817200        0.56739287568917        0.05634967328738
H           -5.21758832730299        1.01612809345154        1.02712071732484
C           -5.81327753439045        1.67836322161278       -0.95461197091263
C           -6.67739470995174       -0.34633696945936        0.21613462977896
H           -4.92471396247161        2.30127761415703       -1.07570910306826
H           -6.02311939553584        1.17916736178840       -1.90065904668380
C           -7.00835884038502        2.55217273664825       -0.56207263376425
O           -7.10735910635645       -0.55285128198099        1.51767209754925
H           -7.85740082029574        1.90151068968220       -0.32561384578822
C           -6.70270243767455        3.42882726557520        0.65101080236494
C           -7.40070380712258        3.42873107928579       -1.74977858806973
H           -5.84138542253110        4.06303428129124        0.45119317664617
H           -7.55385918917387        4.06724885861534        0.87644896613565
H           -6.48996801755236        2.83267428736556        1.53527936168740
H           -7.66278708834277        2.81281260186153       -2.60602489968938
H           -8.25789543215445        4.04890731985499       -1.49896535190989
H           -6.57501752636591        4.07944481393610       -2.03050281391479
N           -7.19574694946807       -0.87012657423749       -0.79013207598277
H           -8.87869582784267       -0.53276929313824        1.14143501645988
C           -8.29474086047613       -1.79761627306776       -0.83065796526508
H           -8.34896312394517       -2.13651733899771       -1.87168875320770
C           -8.12854111698069       -3.01780818666458        0.08574533710186
C           -9.64276307184105       -1.12915723836346       -0.51925534812736
H           -8.13270008285453       -2.73225402041047        1.13546751430431
H           -8.93989380196205       -3.71900517478586       -0.09320673196122
H           -7.18196502872413       -3.50488895358012       -0.13706767127461
O           -9.71667538333648       -0.48238141277867        0.64439636399090
O          -10.58082796022765       -1.19822533363051       -1.26076863115475
