42
 energy: -62.486133513525 gnorm: 0.000479520865 xtb: 6.7.1 (edcfbbe)
N           -1.63273855662821       -2.24531893893436       -0.32919681937109
H           -0.97248811281747       -2.38804286435352        0.42377807952314
H           -1.22938459603743       -2.61239432615035       -1.18176706245147
H           -3.40628451238951       -2.55564795595460        0.06870769343911
C           -2.00465414589758       -0.83619854814337       -0.48005043929682
H           -1.39077131960474       -0.18104978799088        0.14859958213123
C           -1.89612627542899       -0.37072970714695       -1.93020217426622
C           -3.45782387038178       -0.69211426094039       -0.02168937413279
H           -2.50269626120489       -1.00541378513846       -2.57308699843274
H           -2.25952472153063        0.64916567716568       -2.00557259945678
H           -0.86156084197902       -0.40776266246825       -2.26648096121424
O           -4.07709675242891       -1.85336323974635        0.23815417308091
N           -3.94497652158751        0.46201432353304        0.04852347144166
H           -5.27052136856051       -0.78880652705788        2.27281132472456
C           -5.30656504304036        0.79357012073311        0.40834147896568
H           -5.23125053038987        1.36006117432798        1.34912483476311
C           -5.83431246136514        1.72608368163396       -0.69140177016701
C           -6.22610167091963       -0.38406888060005        0.65486275518634
H           -5.05535168652574        2.46495887358121       -0.88575099215458
H           -5.96487536196390        1.12924406001730       -1.59451455154047
C           -7.14726740677755        2.43844598870876       -0.35236446318650
O           -6.09355327042788       -1.03336291123707        1.83352004649983
H           -7.86237812631943        1.69602170431783        0.01324650566527
C           -6.95059317379342        3.50401740608178        0.72383187157143
C           -7.71790292989876        3.07833423362045       -1.61696630980647
H           -6.21792371518001        4.24022432358827        0.39969898259293
H           -7.88881278430994        4.01834156437606        0.91927729470964
H           -6.60919937960980        3.06713901748853        1.65889802597408
H           -7.91256388294381        2.32546125745415       -2.37669166059546
H           -8.65173468715634        3.59022414708240       -1.39683654670442
H           -7.01698415016643        3.80476201173212       -2.02287435092758
N           -7.12672140194571       -0.66814571827639       -0.17685723331669
H           -7.76725002156068       -0.54528032526515       -1.84601567809552
C           -8.03731344814187       -1.77026387080900        0.02394371249541
H           -7.52801243355570       -2.65348055055139        0.42904055547819
C           -9.18681366624484       -1.38545366802089        0.96214471794894
C           -8.62967784982965       -2.11587835412643       -1.35023245980377
H           -9.68483544297450       -0.49067836135024        0.59306062304569
H           -9.90477667957182       -2.19955835434424        1.00381057624540
H           -8.80033271312533       -1.19148243085854        1.95957633265522
O           -8.35082095868398       -1.21250215705515       -2.28273911172604
O           -9.29561852209559       -3.09309704948539       -1.55272606719886
