42
 energy: -62.486133516079 gnorm: 0.000479666161 xtb: 6.7.1 (edcfbbe)
N           -0.77553359527597       -0.01986800925216        0.03242882731941
H            0.11489775348650       -0.13409034013524       -0.43592468493975
H           -0.73101452052385       -0.53841087707841        0.90531968396703
H           -2.01846759964443        1.39170661133680        0.50003764144472
C           -1.87191051238827       -0.52431928967013       -0.79211838713757
H           -1.72624485713474       -0.12832262024735       -1.80566280341803
C           -1.97361933026656       -2.04728780756375       -0.86088714866251
C           -3.15217507196817        0.10576690186228       -0.26219152133158
H           -2.14682895264286       -2.45934305371331        0.13157398362095
H           -2.79919698415280       -2.33033220231489       -1.50537711953783
H           -1.05319523758444       -2.46826561195271       -1.26057901318849
O           -2.98287989646010        1.24643037585080        0.41890141673208
N           -4.26009766561759       -0.44375580426067       -0.49596418237160
H           -5.09745989253895       -2.13570381597137       -0.26782616226352
C           -5.51409394982847        0.12270515860284       -0.03706503730978
H           -5.45569844935062        0.31355207566101        1.04498673232683
C           -5.88029016168892        1.43272142713022       -0.74948168419850
C           -6.54948059359620       -0.96376880662589       -0.26407117090609
H           -4.96980625841997        2.01830220090077       -0.88630559079810
H           -6.27457681604705        1.18200911473802       -1.73527008502236
C           -6.90148144790940        2.27506348547331        0.02514231083850
O           -6.07066884371681       -2.21654980393246       -0.22694762078180
H           -7.65599297988288        1.60274100336617        0.44300435266107
C           -6.22984765949236        3.03322669113715        1.16842176610000
C           -7.58837571397772        3.26129656331694       -0.91748247120763
H           -5.50772917388071        3.74645281102083        0.77622395177383
H           -6.97075295275308        3.57838572150109        1.74849923783412
H           -5.70568195758188        2.35621718591362        1.83829822073534
H           -8.11572931220712        2.73982919644239       -1.71232666342219
H           -8.30805090792623        3.86748486672741       -0.37268594236790
H           -6.85436458794659        3.92598562589084       -1.36885642286704
N           -7.74945964663121       -0.66982793365411       -0.51053322019059
H           -8.93552841006292        0.52526946780043       -1.18494497014567
C           -8.74042956840631       -1.69279056301475       -0.75547187507821
H           -8.33186791268674       -2.53165293277136       -1.33407028846398
C           -9.32037363315546       -2.23384092973852        0.55563695293519
C           -9.87479764220431       -1.04186507686383       -1.55983128561262
H           -9.69138291342732       -1.41190897568642        1.16477004113425
H          -10.13990190390503       -2.91150965246120        0.33388920292160
H           -8.54950774228587       -2.76532707221938        1.10827807998164
O           -9.76966065419941        0.27869332280901       -1.65059555205558
O          -10.77693310543915       -1.66712450770458       -2.04400650357467
