42
 energy: -62.486133506966 gnorm: 0.000480668970 xtb: 6.7.1 (edcfbbe)
N           -1.40087194108495       -0.90246503212172       -0.34885680672659
H           -0.76650079533589       -1.68964359741943       -0.41071418098679
H           -1.04553961395957       -0.28070170340643        0.37272838931263
H           -2.30427453104149        0.33123443899336       -1.48996860247525
C           -2.74969421853891       -1.34643986138933        0.00386846129174
H           -2.99225328729814       -2.19630953765483       -0.64720016008975
C           -2.92576091202056       -1.76323019203727        1.46093576082035
C           -3.71080096549726       -0.22381874405031       -0.37919534753005
H           -2.66141644011435       -0.93904552687122        2.12025140092689
H           -3.96432708328049       -2.02061675040369        1.63648346080114
H           -2.29455320668966       -2.61906920135127        1.69148301658318
O           -3.23108763154886        0.60489255617044       -1.33009330636616
N           -4.83416126986162       -0.19168469397184        0.17337565165247
H           -7.08664499164912        0.81192981219227       -2.24988358526205
C           -5.90741789809312        0.74455512209975       -0.06104547862911
H           -6.20385282904038        1.06579966523658        0.94685896729745
C           -5.61545379793159        1.98486573214234       -0.91317983514169
C           -7.04928962681579       -0.12453562398014       -0.57361107639660
H           -4.69906240880035        2.43994875118828       -0.53393878157442
H           -5.40133749616120        1.69378515948024       -1.94646432799473
C           -6.74188873329464        3.03034463619095       -0.86384193182454
O           -7.52276427495117        0.06424360566478       -1.82035404786495
H           -7.71634871557931        2.52970198465033       -0.91507636812138
C           -6.69247622882266        3.82465151456560        0.43983384298182
C           -6.62190293356688        3.98191825973671       -2.05418698357134
H           -5.75235372316874        4.36700992983798        0.51678453810871
H           -7.50666506400236        4.54475249655283        0.47443384572032
H           -6.78420771373633        3.17002229634721        1.30287823932287
H           -6.71960720674740        3.44988988079754       -2.99899660951979
H           -7.39806523877382        4.74237918590916       -2.01293573676285
H           -5.65446009652763        4.47934459948023       -2.04153743658768
N           -7.46115041166545       -1.04293987493143        0.18057051521340
H           -7.42883029663407       -1.84474269937892        1.78311441970929
C           -8.47599146362943       -1.99023322022441       -0.21376034257249
H           -9.36379748376754       -1.49084358812646       -0.62203051029918
C           -7.95715552759539       -2.99873015935932       -1.24520873683181
C           -8.87729796905789       -2.76110373264546        1.05495126771632
H           -7.03983280969544       -3.45749048700392       -0.88138772970814
H           -8.70639555751232       -3.77006754188211       -1.39993401767014
H           -7.75335870416888       -2.49702678300491       -2.18747370916525
O           -8.08201902360156       -2.52142598056681        2.08854638344288
O           -9.80532113472922       -3.52113091916852        1.09271271558715
