42
 energy: -62.486133515443 gnorm: 0.000479348571 xtb: 6.7.1 (edcfbbe)
N           -1.82252430389006       -1.19435861626725       -0.29785531801735
H           -1.22582613951816       -2.00758261452530       -0.20623565515679
H           -1.32162204539541       -0.40153909109383        0.09493573297090
H           -2.93021116586761       -0.36344852019840       -1.62936448965302
C           -3.08419062031299       -1.38797085911635        0.41835386932413
H           -3.46039707773606       -2.38476272135663        0.15318471517073
C           -2.98361160040660       -1.28028203646426        1.93736564519281
C           -4.08677057998114       -0.39242308272375       -0.15340039528118
H           -2.58177246467484       -0.30906676123192        2.21957969094978
H           -3.97346833501571       -1.38052759748858        2.36816936297074
H           -2.33626462458985       -2.06066650307041        2.33190882034467
O           -3.80043817544457        0.02328581500626       -1.40193885026739
N           -5.09058765466278       -0.08553048792481        0.53344032490991
H           -7.85264050477770        1.31833606571822       -1.63587681299311
C           -6.15607304580571        0.78264321743055        0.09000973814636
H           -6.58368660995965        1.18301814170637        1.02173343209793
C           -5.75612080911011        1.96092169692241       -0.81640054094792
C           -7.22925626855175       -0.11120279288587       -0.51211222824175
H           -4.71999437361731        2.21814487147265       -0.59151197048703
H           -5.77396827787292        1.64567784833565       -1.86340575530791
C           -6.61803003524620        3.21778306552245       -0.60533468531861
O           -8.07875844087197        0.40366167571383       -1.42403271079101
H           -7.66723286044659        2.93578666527949       -0.44500631314918
C           -6.15392593524550        3.98295180395967        0.63281944550378
C           -6.54317529652636        4.12108030263513       -1.83594121524528
H           -5.14052619408506        4.35183932093039        0.48929041522202
H           -6.80477375154557        4.83373250023442        0.82143972698925
H           -6.16349929388762        3.34404641047079        1.51273574214768
H           -6.92862935146850        3.61849047074060       -2.72141155078870
H           -7.12474539383163        5.02665976407867       -1.67943909824535
H           -5.51153561735195        4.40666320925887       -2.02928714101038
N           -7.29326213100913       -1.29801156428573       -0.10426465179712
H           -6.65610984010159       -2.51119058569488        1.02408461059420
C           -8.25303176242215       -2.26883299944386       -0.56484323441955
H           -9.28168100244067       -1.91076076802689       -0.42746318082422
C           -8.05821049830356       -2.65761673962895       -2.03388086610859
C           -8.05172258990661       -3.52038335240242        0.30968021670118
H           -7.02271378685491       -2.94555013872119       -2.20488891596803
H           -8.70473176706484       -3.49888374129764       -2.26718097621202
H           -8.30510870531912       -1.81960018798529       -2.68018080027638
O           -7.03156362248332       -3.41935602866394        1.15060920213929
O           -8.74379875869822       -4.49720123020798        0.22085254575055
