42
 energy: -62.486133506227 gnorm: 0.000480545062 xtb: 6.7.1 (edcfbbe)
N           -2.23789836816849       -1.36939751998198        1.57721433253254
H           -1.68471370290552       -0.54942563022381        1.80162152421736
H           -1.62612665878593       -2.17632426638653        1.59458012533230
H           -4.01334146485173       -0.95119445063937        2.22902508607836
C           -2.87414810964794       -1.22562978534286        0.27000950912169
H           -2.22992221208078       -0.77492510365482       -0.49706648042465
C           -3.36338154417592       -2.59067722020250       -0.21777823744413
C           -4.09834636906158       -0.34969958235929        0.45823298377785
H           -4.01618624122224       -3.04164502613031        0.52668441353729
H           -3.91515436807858       -2.46722987137469       -1.14491141662082
H           -2.52018825712832       -3.25512614373114       -0.39454094800216
O           -4.63388777785781       -0.41478029056955        1.69022524657692
N           -4.50303292597750        0.35937051349704       -0.49664806465032
H           -7.74980415433144        1.11032173355898       -1.90428889456630
C           -5.75689020258691        1.08123260587316       -0.42904339693928
H           -5.85367181142121        1.57204129192385        0.55325638258508
C           -5.74773704775857        2.13807825418371       -1.53875190734178
C           -6.90917752021154        0.08899977907686       -0.50790346860833
H           -4.72757506484827        2.52095020346142       -1.59771838494476
H           -5.94360048658915        1.65614898829238       -2.50145233667786
C           -6.70963479822334        3.31370832129471       -1.30024595717966
O           -7.90492997152343        0.30678012568754       -1.39190998847918
H           -7.65064753768172        2.94664668681762       -0.87105970041707
C           -6.10715554442597        4.30905271870164       -0.31032428745821
C           -7.02015931942271        4.01780390902056       -2.62088550219300
H           -5.19769439003980        4.74380429737584       -0.71927524138961
H           -6.80972281161053        5.11328861371193       -0.10440973458457
H           -5.86142606902911        3.82352414728620        0.63087881202942
H           -7.50537065569442        3.34505529400557       -3.32620034009531
H           -7.68015815596500        4.86575438083880       -2.45392499996131
H           -6.10229034146004        4.38369886200200       -3.07563611643283
N           -6.89486642485125       -0.90560772113106        0.26033417687093
H           -6.21395986938145       -1.65115545798824        1.78849698164095
C           -7.91284867850688       -1.92592025556223        0.25709360106420
H           -8.91920755760657       -1.49201923498578        0.33012571709120
C           -7.84942399683655       -2.81242290631027       -0.99095200208135
C           -7.67248447806060       -2.80292712076566        1.49707431157210
H           -6.83859250811688       -3.19411961557361       -1.12161892971322
H           -8.53238591409957       -3.64813951083998       -0.86721465210433
H           -8.12982355768808       -2.24082477248197       -1.87158214136800
O           -6.61067913041840       -2.45622245889588        2.20916475286229
O           -8.37794527037132       -3.73287263774977        1.78026044314335
