42
 energy: -62.486133502340 gnorm: 0.000481484306 xtb: 6.7.1 (edcfbbe)
N           -0.96942486408312       -0.46285279025296        0.55863794056132
H           -0.04562538610744       -0.71522427270152        0.22952132641024
H           -1.14802943662928       -0.99524444805460        1.40594463357509
H           -2.04838314945858        1.09597336969414        0.91773924340082
C           -1.98719396847511       -0.77420715964855       -0.44386707934696
H           -1.62559784754149       -0.38450779011184       -1.40492094083085
C           -2.30427219071622       -2.26104612286354       -0.58913502411219
C           -3.22669736388039        0.03204317518505       -0.08248905583846
H           -2.66374099004717       -2.66052720671819        0.35681337507177
H           -3.08134619083194       -2.40003149685446       -1.33289125255137
H           -1.41490810491859       -2.81020195358302       -0.89226486539264
O           -2.99723437570253        1.11239110387339        0.67855667194248
N           -4.35682751184853       -0.33785569041380       -0.49436500547532
H           -5.66622015501843       -0.80264011548343       -2.17557603989788
C           -5.54988289140906        0.43413655262616       -0.20460899168186
H           -5.63673558639775        0.63130083165246        0.86860009368743
C           -5.55960239865294        1.76787507006010       -0.97478012099132
C           -6.70430168045046       -0.42741339807293       -0.65606441400210
H           -4.75304114912675        2.38947070326817       -0.58279654303338
H           -5.34155081620416        1.56137752440504       -2.02731717675612
C           -6.88653941257119        2.52802963985272       -0.87930568155726
O           -6.57839860457920       -0.95532741303277       -1.88456866500792
H           -7.68969414137266        1.88169302141219       -1.25024765872128
C           -7.20956173153461        2.92297226037254        0.55887236084930
C           -6.81962487476054        3.77208861952847       -1.76401490504562
H           -6.39205892616380        3.50023411132122        0.98586368283912
H           -8.11082208594198        3.53051289160861        0.58573480167458
H           -7.37828541007453        2.04419546897851        1.17454761726144
H           -6.61384147812116        3.50330906764292       -2.79792022756415
H           -7.76398484117828        4.30975152793331       -1.73327173044457
H           -6.03310116339711        4.44000617072455       -1.41877924590667
N           -7.66408435100325       -0.66300854858461        0.12486299422586
H           -8.64703170313023       -0.18282711328256        1.56159810252401
C           -8.78068854008430       -1.49315209712539       -0.27453744845600
H           -9.09676719228029       -1.28495805522251       -1.30440977098880
C           -8.44781703130105       -2.98381755512956       -0.15250209601157
C           -9.94694289530328       -1.17411001015917        0.67260377401802
H           -8.09296170611894       -3.20348339186460        0.85229497403284
H           -9.34228405378027       -3.56748121532519       -0.35078005775167
H           -7.67403250278004       -3.24971156228816       -0.86808399223705
O           -9.60057164359764       -0.39867194047490        1.69325039242248
O          -11.05648091251757       -1.60108560295698        0.51299101236553
