42
 energy: -62.486133516254 gnorm: 0.000479252969 xtb: 6.7.1 (edcfbbe)
N           -2.66567076977631       -2.62272966171534        0.73443831775678
H           -3.04884024833151       -2.81081788604935        1.65514785413126
H           -1.73625171163272       -3.02407518587266        0.69558539802416
H           -4.26797137572440       -2.56635046896222       -0.33183831022557
C           -2.62169612615131       -1.18425217201588        0.47822538388990
H           -2.30349759530638       -0.58698225905573        1.34330016600641
C           -1.68888604275604       -0.89452388389587       -0.69793023001538
C           -4.03187841744859       -0.75708494061813        0.09725307712875
H           -1.99438958111428       -1.47028944477092       -1.56911736293081
H           -1.72788217975820        0.16366452893458       -0.93818732784010
H           -0.66489962967922       -1.16081725612586       -0.44462029487438
O           -4.78185282168476       -1.73777662269316       -0.43140653825120
N           -4.35790322617899        0.44439716533751        0.25186925743570
H           -6.33902176948149        0.14886139530146       -2.28015160684286
C           -5.65557254081267        1.00462718209444       -0.05498085967035
H           -5.97289711735009        1.47979308887702        0.88053623607974
C           -5.45714492433805        2.09174723811965       -1.12206858057096
C           -6.72427173428572       -0.01098163034343       -0.41083718008987
H           -4.68174570927288        2.76322666008382       -0.74933402896188
H           -5.05850051202771        1.63655172906228       -2.03623332459147
C           -6.71929840364792        2.89989519409341       -1.44886879115723
O           -6.95376571551852       -0.31812820736749       -1.70110333454121
H           -7.52878461733215        2.21692183122392       -1.73062242505879
C           -7.18563622748212        3.71877492112509       -0.24775552141668
C           -6.43576891192705        3.82366469742825       -2.63320334940313
H           -6.38481787627845        4.36450816152159        0.10578223421352
H           -8.03134787997240        4.34257067449299       -0.52734144817197
H           -7.49988334233398        3.07428565888951        0.56872613206043
H           -6.12998796145304        3.25563222683134       -3.50970800741515
H           -7.32480860387651        4.39346475399351       -2.89164504729971
H           -5.64082876452962        4.52318693761667       -2.38396185488422
N           -7.35052425979081       -0.54959395391870        0.54247872998757
H           -7.83238644517819       -0.55831310145753        2.27568279615413
C           -8.37252879302037       -1.54793294661730        0.32270965091599
H           -9.04071711592809       -1.27285542842806       -0.50302831428901
C           -7.77065584493805       -2.92740421353203        0.03293870426318
C           -9.19095286995884       -1.64573603866440        1.61770279202602
H           -7.09549726096319       -3.21109436733330        0.83759807270543
H           -8.56968141934848       -3.65971070148974       -0.03927895380125
H           -7.21435438507547       -2.89587878178967       -0.89964306315189
O           -8.63867940650445       -0.99855940416543        2.63789112358627
O          -10.21451117859350       -2.26591110084277        1.70393469861461
