42
 energy: -62.486133507045 gnorm: 0.000480597356 xtb: 6.7.1 (edcfbbe)
N           -1.21479886335672       -0.65946206135772        0.78957715426079
H           -0.29829481501669       -1.01204350184330        0.54117673013850
H           -1.52037782221071       -1.16274333338564        1.61838643288164
H           -2.17775539262674        1.00690992402320        1.05051408083925
C           -2.16965615675912       -0.87650359055734       -0.29669762993259
H           -1.69953042093361       -0.50658054044378       -1.21790739018801
C           -2.59573591775966       -2.32904717916105       -0.49521571584600
C           -3.36495373326250        0.02264526000403       -0.02079607225745
H           -3.04067710720060       -2.71554609242508        0.41907871113897
H           -3.33953167983295       -2.38394633621410       -1.28246225713330
H           -1.73893441236614       -2.94435901589334       -0.76268654383979
O           -3.10223089474745        1.09559495034857        0.74398169099323
N           -4.49126295374552       -0.26779320394895       -0.49848058308865
H           -6.27012700792086       -0.12291563982194       -2.47541779514782
C           -5.63687632195477        0.59395275625758       -0.26992157693859
H           -5.72040580747480        0.83623266481278        0.79591893753565
C           -5.53585859033875        1.89570119553818       -1.08098493010434
C           -6.83290381089407       -0.24103773679205       -0.66363639294041
H           -4.73042514793043        2.49181606641331       -0.64844448639045
H           -5.24370784467187        1.65876745882311       -2.10999782187007
C           -6.82842517374889        2.71967138014384       -1.09618083173072
O           -7.00731580531593       -0.49269494384997       -1.97368265057142
H           -7.63373014352177        2.11523087922354       -1.52923999622547
C           -7.24578891811299        3.13640073978121        0.31181875413569
C           -6.62754088712971        3.95404830157441       -1.97447801113022
H           -6.42949609247673        3.65277825908423        0.81239027406072
H           -8.09940498391187        3.80853068925547        0.26454706398346
H           -7.53007188672178        2.27168667116886        0.90544817027754
H           -6.34465539315097        3.67079455049841       -2.98631247245023
H           -7.54428475273343        4.53595356279730       -2.02774993383927
H           -5.84356640615296        4.58628844301599       -1.56294966483384
N           -7.55100486232834       -0.74326072751711        0.24084788492489
H           -8.08765334633485       -0.79364503418826        1.96292242622417
C           -8.66245037925910       -1.61923322088691       -0.06101576746718
H           -9.28909483507524       -1.21717655691969       -0.86685966506239
C           -8.19175533138448       -3.02360334877853       -0.45510822085265
C           -9.51091014163683       -1.73117213748719        1.21457779541268
H           -7.52272153718168       -3.41690685336897        0.30756339603007
H           -9.05459774709565       -3.67751413403197       -0.54560214397915
H           -7.66312463693362       -2.98504285787939       -1.40376575509335
O           -8.93660845448251       -1.18428959034557        2.27962799147533
O          -10.57794483972869       -2.27851194511025        1.24615186061170
