42
 energy: -62.486133498728 gnorm: 0.000481639954 xtb: 6.7.1 (edcfbbe)
N           -1.29846595503422       -0.49516985181124       -1.74773846604456
H           -0.70833607103644       -1.16237113104633       -2.22960106778467
H           -0.71597639004647        0.00441618924157       -1.08128008856782
H           -2.62848098805785        0.81826697103635       -2.15584545143394
C           -2.38901780295146       -1.16990698411887       -1.04574503302916
H           -2.83233208103265       -1.88861496158316       -1.74690623718102
C           -1.97243799392063       -1.90307382068975        0.22654607205927
C           -3.46851726163638       -0.12443722756177       -0.77187850792860
H           -1.51418010294654       -1.20784848159466        0.92716890258006
H           -2.85023282613440       -2.33430811475913        0.69478982150373
H           -1.26173597375090       -2.69394420936715       -0.00496043023720
O           -3.42065590294295        0.93737786536848       -1.59179362910317
N           -4.29350574734373       -0.35338417426712        0.14493948759122
H           -6.17014651082572       -0.88128370232312        2.44278781838092
C           -5.42703953834090        0.45527089302003        0.53418947234415
H           -5.20899393295585        0.79816695010929        1.55678652591642
C           -5.80092093833881        1.65757161533914       -0.33948118350402
C           -6.55969370040070       -0.55325256955798        0.59269832767569
H           -4.95403384530242        2.34274703214543       -0.38221280619413
H           -5.99213174555491        1.29241693256935       -1.34828880086636
C           -7.03786812054456        2.40696311958778        0.16985620034622
O           -6.82046623247257       -1.14063035130318        1.77873681295630
H           -7.83184152626032        1.67870150894047        0.36747115640529
C           -6.74654831699933        3.17721421507538        1.45659297139863
C           -7.52733142884433        3.37106408593569       -0.90915956566302
H           -5.93640024703875        3.88623556128694        1.29763373655405
H           -7.62829498763424        3.73144037582803        1.77100351535833
H           -6.46591523751701        2.51048906884151        2.26867780164210
H           -7.78261125984886        2.83175070353718       -1.81777303088753
H           -8.40989295479392        3.90888345316512       -0.57010668406708
H           -6.75268884702851        4.09698036207053       -1.14627296380249
N           -7.15619443842130       -0.86373464936545       -0.47033428303122
H           -7.13913888370195       -0.90380914637966       -2.26748740214923
C           -8.18982008579196       -1.87011856936638       -0.51373577206862
H           -7.93816541968913       -2.74551231252577        0.09819777896498
C           -9.53790163508287       -1.30990748584387       -0.04761579272169
C           -8.32337344165289       -2.31119908650262       -1.97955864605023
H           -9.78032533048877       -0.41055017038957       -0.61028606285368
H          -10.31212853713499       -2.05341089037069       -0.21426717841872
H           -9.49165129212809       -1.06587483140792        1.01084041442981
O           -7.62210812681023       -1.56261373666672       -2.82158412107836
O           -9.00868961132349       -3.23302624419458       -2.32606845660766
