42
 energy: -62.486133507475 gnorm: 0.000481105853 xtb: 6.7.1 (edcfbbe)
N           -1.55583266030117       -1.73898794385829        0.61518900744431
H           -1.11528195202751       -1.14787986247845        1.31263165561909
H           -0.83894917340538       -2.33130490232209        0.21268020000889
H           -3.36375549647401       -1.96250310933182        1.26053767840531
C           -2.19781769885907       -0.92870407239353       -0.41986461079255
H           -1.62505238940722       -0.03754429961082       -0.70875480753537
C           -2.45563452835934       -1.78170020380813       -1.66235272430191
C           -3.54112751793498       -0.47740997010079        0.12550042625645
H           -3.02230015561465       -2.67114261583753       -1.39486297582917
H           -3.02473886123625       -1.20491923008752       -2.38479833310318
H           -1.51450267144211       -2.08832938926302       -2.11410962948669
O           -4.04664681257654       -1.28178586180830        1.08854094557042
N           -4.07417152209366        0.55716673955593       -0.33734908013125
H           -5.81783866485502       -0.29163016533656        2.08543998182767
C           -5.39157127838439        1.03592939450713        0.03163031698310
H           -5.28653414434701        1.59194323902671        0.97573677847637
C           -5.84842985724256        1.98929151088928       -1.07683429724885
C           -6.39790205552286       -0.07523097444018        0.24593074945645
H           -5.04101381221482        2.70251742444107       -1.24692157423472
H           -5.97635966196658        1.39159132381526       -1.97826233423996
C           -7.15202608919799        2.73511710669218       -0.77865954786968
O           -6.59746731769428       -0.48289419914760        1.54856929936523
H           -7.93398351959625        1.99958508837898       -0.56456593452300
C           -7.01856969149941        3.67609691292114        0.41739279907334
C           -7.56846977853848        3.52746467767680       -2.01640846891679
H           -6.19222780862341        4.36793026989486        0.26621050642383
H           -7.93126840321165        4.25437104453505        0.54118086298143
H           -6.84784378428726        3.12840788266324        1.34106690591798
H           -7.69718720946293        2.86334943309246       -2.86690617668076
H           -8.50877454406255        4.04433629030023       -1.84046434963249
H           -6.81034453942973        4.26700362355635       -2.26622825707624
N           -7.02471245624344       -0.52598984968784       -0.73809021099713
H           -8.39719493464867       -0.60509710318105        1.43584743213805
C           -7.99875822914044       -1.58499784848017       -0.73657660048556
H           -8.17992293406928       -1.81272698668988       -1.79363849774017
C           -7.55358591133672       -2.86567276817477       -0.01622164479624
C           -9.34681205346531       -1.13759914314025       -0.14965856936034
H           -7.43261308746827       -2.70164973261154        1.05217739096385
H           -8.29507137030556       -3.64501008041668       -0.17330228528168
H           -6.60089882914276       -3.19448761782558       -0.42567704796825
O           -9.30487309770270       -0.62659158737369        1.07955759409787
O          -10.37812476337124       -1.26233835936195       -0.74637737525732
