42
 energy: -62.486133530514 gnorm: 0.000477115320 xtb: 6.7.1 (edcfbbe)
N           -1.31609801041152       -0.68302500948429        0.30408130115783
H           -0.59170836625568       -1.36199277116746        0.10429085621928
H           -1.28406842399899       -0.48713811808815        1.30100494649477
H           -1.98682514493852        0.96780719719501       -0.36014909938358
C           -2.63517638040759       -1.20633888834206       -0.05212702489587
H           -2.54966254922105       -1.64915676339283       -1.05286384238929
C           -3.19203419726641       -2.24853298916894        0.91381002477351
C           -3.57711542286763       -0.01129412061095       -0.18471159855083
H           -3.24374866217201       -1.83670048233629        1.91942434981746
H           -4.19573568928548       -2.52092120753413        0.60717904915727
H           -2.56091919017409       -3.13487983100449        0.92496661267932
O           -2.94648881995544        1.16051878294524       -0.41010315949572
N           -4.80769101103847       -0.21791313763732       -0.08868162676341
H           -7.32633567402739        0.83537480914915       -2.23365167447119
C           -5.88375141361221        0.73825398588552       -0.19575231107359
H           -6.07505783520790        1.09306967329001        0.82603336243007
C           -5.65506731198764        1.95013647778004       -1.10883183314588
C           -7.08560395013168       -0.11693696824908       -0.58345697301880
H           -4.69742746732071        2.39639128730866       -0.84221530930351
H           -5.55631265091948        1.61287521564317       -2.14732600026581
C           -6.74567323470913        3.02703398301529       -0.98230272670243
O           -7.71720686633469        0.09355188799596       -1.75435307871298
H           -7.73436946963058        2.55688226253363       -0.91693519943717
C           -6.54105949188644        3.85753967039865        0.28323925543070
C           -6.72143443266166        3.93930391160000       -2.20864016990603
H           -5.58114038730665        4.36839993041077        0.24916932694133
H           -7.32514478157928        4.60560844254066        0.37512661181044
H           -6.56633154782104        3.23184989542483        1.17195503287681
H           -6.92691688023214        3.38347180036826       -3.12206362039295
H           -7.47002230424860        4.72236702863747       -2.11464978327513
H           -5.74531463889659        4.40939466075896       -2.30732356560932
N           -7.40892506558813       -1.03814630240112        0.20922155767560
H           -7.11416343694098       -1.88927014095581        1.74721318592018
C           -8.47415284414607       -1.97645663532772       -0.04851022973068
H           -9.41527415076433       -1.46637817597770       -0.28969445813681
C           -8.13697279318683       -2.95323161903045       -1.18088793629945
C           -8.66430632184202       -2.78721128386120        1.24501988685980
H           -7.17512964346135       -3.42379310548679       -0.98724170612951
H           -8.90584924979058       -3.71910331800670       -1.23260804449843
H           -8.08802483731490       -2.42393868802724       -2.12857665817273
O           -7.70598319446862       -2.57999969113974        2.13788595352263
O           -9.57596751171043       -3.54949749301913        1.41297147432789
