42
 energy: -62.486133509380 gnorm: 0.000479678514 xtb: 6.7.1 (edcfbbe)
N           -1.40389938774581       -0.15545085482752       -0.81120974490403
H           -0.49902108352338       -0.59667370596369       -0.67983933520388
H           -1.59201318942389        0.42243690620548        0.00130118189066
H           -3.94956847414070       -0.77603636805469       -2.80856952559910
C           -2.44312188838326       -1.16897297436410       -0.92166298685620
H           -2.29825759926220       -1.67224320672689       -1.88938835491568
C           -2.41740723867861       -2.22126192002696        0.19508307090686
C           -3.78281467339779       -0.45129991967964       -0.92077643533866
H           -2.59639785724168       -1.73462699386432        1.15013437480582
H           -3.19358424552698       -2.96527412950509        0.03288369995127
H           -1.45096858562827       -2.72231108256697        0.21782824958003
O           -4.43997992010032       -0.36070467264643       -2.08733594993504
N           -4.15929485404613        0.04299844457756        0.17326646324726
H           -6.71200981877755       -0.18793985688507        2.23561520972160
C           -5.41886565449950        0.72032599950867        0.38808336491750
H           -5.35644716429945        1.09890045323117        1.41829220750636
C           -5.66943126930797        1.88925216794886       -0.57689324153236
C           -6.55264053061862       -0.27591180405231        0.29131563261289
H           -4.77149895046178        2.50976957203168       -0.60726759939241
H           -5.82928338947362        1.45842042682967       -1.56428317087364
C           -6.88146911826295        2.74429333855722       -0.19199490327445
O           -7.15501855808574       -0.61562118211366        1.49259127635648
H           -7.72253022874190        2.07914077584728        0.03624495691777
C           -6.59798002208003        3.62160080943802        1.02625610740557
C           -7.28043845092254        3.62068315802532       -1.37741667430203
H           -5.76834718171034        4.29426292536701        0.81919047903924
H           -7.47185560209447        4.22151613215992        1.26983331443709
H           -6.34487159529120        3.02845690258709        1.90199079923987
H           -7.54594669854593        3.00497029104658       -2.23280809723756
H           -8.13644355609495        4.24114923736932       -1.12268704047141
H           -6.45587775054977        4.27105770804932       -1.66149489590346
N           -6.86488955699187       -0.76785740791121       -0.81178374346652
H           -8.84429301997156       -0.71204198970711        0.85101055612353
C           -7.85512450482680       -1.77547402475210       -1.07912129132421
H           -7.72183926010437       -2.03713259222854       -2.13540371093551
C           -7.71250735560739       -3.04317095097846       -0.22501158928015
C           -9.29207785137442       -1.24844792846997       -0.94027122356327
H           -7.89182269863556       -2.83700718541828        0.82794019707923
H           -8.42397237102545       -3.79137748560913       -0.56534453063513
H           -6.70448034534381       -3.43828163378298       -0.33238496895245
O           -9.60062217172168       -0.70061639844347        0.23459215389160
O          -10.09727764253427       -1.34552465896453       -1.82156882983112
