42
 energy: -62.486133511615 gnorm: 0.000479951257 xtb: 6.7.1 (edcfbbe)
N           -0.86741133080111       -0.95979990133272        0.18467504641080
H            0.05480475039829       -0.94850437064599       -0.23405532003252
H           -1.04263665960174       -1.90834811525097        0.50747692487897
H           -1.90404484299960        0.06012967590126        1.43125979893877
C           -1.88917707806283       -0.56793008201761       -0.78702809964978
H           -1.51131553931556        0.31148696595110       -1.32363747673162
C           -2.26296475519626       -1.64967727642541       -1.79744624889478
C           -3.10548225778349       -0.09920475155121       -0.00259372677086
H           -2.59396189913410       -2.54883863161216       -1.28103744954869
H           -3.07837766952313       -1.29266851742845       -2.41772117472232
H           -1.40933848265255       -1.89641272066764       -2.42523070529040
O           -2.85731087196918        0.22808171779285        1.28512568000664
N           -4.22605675931773       -0.04079020616906       -0.56620966319930
H           -5.20227596029035       -1.44476431060938        1.50024581705817
C           -5.39199775500780        0.48871731776315        0.11403697947985
H           -5.15340385226117        0.81731216386759        1.13817610261895
C           -5.92527024403726        1.66317658097772       -0.71111166121605
C           -6.36912195043203       -0.66167423802043        0.19417488305720
H           -5.11021033408333        2.37800985507943       -0.84248071842519
H           -6.18998038772416        1.27377041443418       -1.69377733815776
C           -7.12975359301747        2.37271827430462       -0.08353608218667
O           -6.04620776250598       -1.63904400327625        1.07220077814421
H           -7.84381232521263        1.61490196686978        0.25110055961679
C           -6.71542492615325        3.22270914832080        1.11627392912813
C           -7.81022149685268        3.25106330375507       -1.13200187958150
H           -6.00557226894122        3.98921528157860        0.81088105703623
H           -7.58410231379534        3.71471590589336        1.54812240237646
H           -6.25325521685861        2.61673352026667        1.89176809569717
H           -8.17053305582296        2.65155919587693       -1.96420405057040
H           -8.65758848734761        3.77531798541191       -0.69648986109080
H           -7.11166122785766        3.99107807609644       -1.51699290849347
N           -7.38329951402458       -0.70633324023734       -0.54482510943065
H           -8.28348805249650       -0.06153235034134       -1.96310830885122
C           -8.31404401090923       -1.80960443849011       -0.52851878534542
H           -7.79992424334757       -2.77881494697714       -0.53121998024752
C           -9.24845254534676       -1.74855384270573        0.68507468537051
C           -9.16736973492467       -1.69255503019734       -1.80222341939521
H           -9.74085187398605       -0.77875942943866        0.72706268402683
H          -10.00245939490873       -2.52561144711258        0.59568601783113
H           -8.67987046537164       -1.89880455884673        1.59954665704921
O           -8.98649383098628       -0.55124683300023       -2.45408678502880
O           -9.93627104039182       -2.54324993305722       -2.15441627432299
