42
 energy: -62.486133509852 gnorm: 0.000480489984 xtb: 6.7.1 (edcfbbe)
N           -1.17678030145582       -0.26576885528810       -1.67205298649230
H           -0.41564143199224       -0.84623820785723       -2.00153832045404
H           -0.76987747582054        0.52131752529139       -1.17438581077323
H           -2.77177444011796        0.53621112378940       -2.33193849728928
C           -2.06578264898343       -1.01118491584367       -0.78361826832005
H           -2.25161579014313       -1.98664015882978       -1.25223763219313
C           -1.52046327228069       -1.22411366927747        0.62715565528451
C           -3.40365340665980       -0.27370965272176       -0.76540938409350
H           -1.30450592854148       -0.26434197453214        1.09221331299101
H           -2.25971779785924       -1.73636176007760        1.23351373617805
H           -0.60792775995022       -1.81604133020452        0.59625333962610
O           -3.59650239140251        0.54836643667329       -1.80168765786825
N           -4.20430268443678       -0.50504605048825        0.17923313163415
H           -5.13322766624322       -2.24284602576487        0.00828790072499
C           -5.53715328305506        0.05703016281205        0.29009938755781
H           -5.72099913000345        0.09056414158791        1.37500080956232
C           -5.77211772470187        1.45630280259862       -0.29127445339615
C           -6.50494279262812       -0.97481767917006       -0.26374820880764
H           -4.85026999423039        2.03221018856437       -0.19257618537988
H           -5.99505413515321        1.36394689948879       -1.35425914525637
C           -6.90519898924088        2.20983046735085        0.41818089173310
O           -6.05645046094706       -2.24304461550436       -0.30010312276802
H           -7.71576493221490        1.50439954471974        0.62066913254054
C           -6.42663303117262        2.79905404336556        1.74407886830138
C           -7.43548912943832        3.32452259463645       -0.48127922030917
H           -5.64625599915243        3.53809789755523        1.57026446370361
H           -7.24977255122051        3.28804949156465        2.25979931811681
H           -6.02784028731051        2.02861327259902        2.39948983796718
H           -7.82817433635436        2.92228876896786       -1.41182805134230
H           -8.23381721429221        3.86807185993594        0.01824798088560
H           -6.64007385746440        4.02826669611998       -0.71936851636864
N           -7.66680099605727       -0.63282225168414       -0.60571140947371
H           -8.73003130502126        0.67432507568308       -1.29518461499958
C           -8.62282795064652       -1.58772952011610       -1.11780588748848
H           -8.14699518655337       -2.36790515089759       -1.72571007640944
C           -9.40289339634201       -2.25343915252262        0.02093240245808
C           -9.61417984557494       -0.81170302938551       -1.99782880280539
H           -9.83804000435804       -1.49335302005140        0.66670353262911
H          -10.19810215994852       -2.86370690178667       -0.39785905215814
H           -8.73691916595478       -2.87976724552970        0.60930320148552
O           -9.48733715661314        0.50643023609557       -1.90468904669055
O          -10.43428326257933       -1.34934385789134       -2.68839743111055
