42
 energy: -62.486130623307 gnorm: 0.000495204893 xtb: 6.7.1 (edcfbbe)
N           -1.56484598472799       -1.74302902344800        0.98723533511956
H           -1.37201503809196       -1.23149203258661        1.84194286879720
H           -0.71793452989695       -2.22911972702222        0.71806825115913
H           -3.46436458975630       -2.09963627114141        1.20301200012859
C           -2.00264247321489       -0.83496952514490       -0.06995796910972
H           -1.44441609365062        0.11067824132367       -0.10762481984878
C           -1.89445902084420       -1.53118978534056       -1.42847175673563
C           -3.46490120317566       -0.51692334210571        0.19214333576077
H           -2.47804885167987       -2.44989525206190       -1.42895516505109
H           -2.26032672272765       -0.87047409057209       -2.20928004771949
H           -0.85717416058841       -1.77937431173250       -1.64294171990565
O           -4.12372388094528       -1.43430031610018        0.91838030850377
N           -3.96311506423704        0.53953699016811       -0.27987338786715
H           -4.98141336862345       -0.94091953940865       -1.69043817971789
C           -5.37127748208762        0.84016242892919       -0.11685560395678
H           -5.55788841668731        1.14329101927097        0.91855184528845
C           -5.69374362811671        2.00772395190684       -1.06721702711559
C           -6.26934367698440       -0.33763239625873       -0.42099790847418
H           -4.96047262793791        2.79048418257686       -0.86727439179438
H           -5.53418976183345        1.66479698330629       -2.09286594908968
C           -7.10862478630316        2.57853121968103       -0.94248386273221
O           -5.85463909564965       -1.20374172000222       -1.36707619769799
H           -7.82910909744696        1.76803516291311       -1.08981046181692
C           -7.35420556778290        3.20160175789286        0.42914442731131
C           -7.32892036952251        3.62472052762738       -2.03449396067294
H           -6.63873818927289        3.99989013420742        0.61651797081869
H           -8.35639596841706        3.62065406582306        0.47350678057468
H           -7.26512024434503        2.46153750439837        1.21936777838949
H           -7.18852153773365        3.19094390181398       -3.02197848186146
H           -8.33867466427221        4.02331215982284       -1.97771796780478
H           -6.62742464835358        4.44839323117926       -1.91823268532318
N           -7.40856074193018       -0.39003265582608        0.11332785108449
H           -8.77839941842218        0.45725316998033        0.96237415798975
C           -8.34792616997967       -1.44014592864800       -0.20938909372695
H           -8.35395936254192       -1.67190913271468       -1.28249728009648
C           -8.03874366263294       -2.72161537864730        0.57205169181552
C           -9.74277743287395       -0.94530555622664        0.19789712979116
H           -7.99559894659961       -2.50391099829233        1.63720627262417
H           -8.81977608747478       -3.45367956318854        0.38711990425297
H           -7.07938730303924       -3.12294774279315        0.25549796000391
O           -9.72243018733050        0.18037954952175        0.90185445401457
O          -10.75196119572530       -1.53170771704324       -0.07983122456034
