42
 energy: -62.486133511936 gnorm: 0.000479652773 xtb: 6.7.1 (edcfbbe)
N           -1.42038625967595       -0.89267047092424       -0.12001961528994
H           -0.77973611976240       -1.67566801723541       -0.16918817598237
H           -1.15119287068588       -0.32853079020003        0.68155139053954
H           -2.21870984591303        0.41584989279735       -1.27709545163586
C           -2.79742822357195       -1.35837500569052        0.04678804690498
H           -2.96770910069693       -2.13604376739660       -0.70944828343372
C           -3.12178394947774       -1.92133265431650        1.42702618708771
C           -3.71403128228814       -0.19461570403839       -0.32103226753538
H           -2.94705850515024       -1.16618082324987        2.19016199111321
H           -4.16696341582546       -2.20719743142153        1.46402240863217
H           -2.50112147382278       -2.79005288746383        1.63757850686458
O           -3.15288971107415        0.68972948749980       -1.17345476374748
N           -4.87080400386078       -0.17830846132303        0.15564067075444
H           -7.30532075334627        0.94300844919200       -2.15630976575997
C           -5.92834397525263        0.77213638289158       -0.08347022761751
H           -6.20210942945414        1.13040623359935        0.91883122635258
C           -5.63355843840111        1.98237502541595       -0.97855781059743
C           -7.09651312923561       -0.09116316274557       -0.55129806737926
H           -4.68154763972878        2.40881404849885       -0.66111557029987
H           -5.48750145845814        1.65559602007753       -2.01339564333748
C           -6.71065643953195        3.07773226576425       -0.89092858242876
O           -7.69836654517804        0.17182340397507       -1.72698891662728
H           -7.70644792738871        2.62191442224940       -0.83085966488834
C           -6.51550019365096        3.92798827903831        0.36309984950205
C           -6.65726636252664        3.96677358157178       -2.13331434772292
H           -5.55733990976714        4.44200329453869        0.32590118246334
H           -7.30208258097127        4.67506857579848        0.44036012268946
H           -6.54232841386404        3.31475385816283        1.26055664849336
H           -6.86185727613167        3.39821474363240       -3.03914933714451
H           -7.39310055272550        4.76429218465791       -2.06222099981687
H           -5.67205427308496        4.41786368286596       -2.22966065064677
N           -7.41620231313558       -1.05825686393172        0.18469667514085
H           -7.06360074905284       -1.97425749386466        1.65716957044364
C           -8.44502534111239       -2.01869470655993       -0.12537171974845
H           -9.41725375284287       -1.53075640365281       -0.27108248746200
C           -8.12767546069636       -2.86743185271622       -1.36125857410896
C           -8.54233310914567       -2.95346786494117        1.09521611994098
H           -7.13385646932686       -3.30036834685636       -1.26443435751799
H           -8.85899095773009       -3.66701887168453       -1.44020283369364
H           -8.16228960576129       -2.25441704116782       -2.25778628617571
O           -7.59338114942097       -2.74092980739156        1.99541293465978
O           -9.38387230390464       -3.80263124506201        1.20256612847315
