42
 energy: -62.486133505444 gnorm: 0.000481192845 xtb: 6.7.1 (edcfbbe)
N           -0.83329893700975       -0.70494411058615        0.37278146995861
H            0.10645308023223       -0.61849442767883        0.00616331966732
H           -0.92977563670100       -1.64569732848883        0.74588331867034
H           -2.03413144890945        0.26537757196797        1.50601467689718
C           -1.83038011050623       -0.47449286601742       -0.67238190980375
H           -1.50373585957397        0.39664741881295       -1.25426508327647
C           -2.05246629015562       -1.65342729616454       -1.61870088983075
C           -3.12543605159229       -0.06623862468298        0.01713997733228
H           -2.31632025797741       -2.54709214948844       -1.05425515555874
H           -2.86705832405385       -1.41964458846048       -2.29632203672497
H           -1.15140100430316       -1.85602454237358       -2.19368506747446
O           -2.98419786022900        0.35514519163949        1.28684184247758
N           -4.20832279426524       -0.12050868400545       -0.62098554318305
H           -5.02688242114878       -2.01634838493791        0.29785104811397
C           -5.45925429068741        0.30283962181432       -0.02335848328765
H           -5.34435079313604        0.47657786270743        1.05916810081545
C           -5.93169963876472        1.59238398913977       -0.70388959682061
C           -6.43827398054023       -0.83847994768037       -0.19435201901350
H           -5.06731576042135        2.24996104680922       -0.81858477325016
H           -6.28824396076939        1.33150603119097       -1.70025930173618
C           -7.02728004771283        2.32923302783300        0.07548184726897
O           -5.98224873664646       -2.06020729306161        0.15599242034382
H           -7.74677459062658        1.59133125258354        0.44122344141546
C           -6.44251157171435        3.08162841238803        1.26965619672690
C           -7.75270657074812        3.30744728808400       -0.84668549188105
H           -5.76253391951080        3.86025345165087        0.92925174136443
H           -7.23580755006427        3.54981607636077        1.84773676862905
H           -5.89296553264198        2.41449905219640        1.92917726080335
H           -8.22602633637521        2.78657490349905       -1.67518626011072
H           -8.52221113079739        3.84557817447431       -0.29838007017575
H           -7.05137644423151        4.03382805167805       -1.25237864068556
N           -7.59193797637826       -0.63655302442215       -0.65096669886266
H           -8.73483773559394        0.43439242989332       -1.55402067776453
C           -8.54684612117548       -1.70463661088403       -0.83250004935081
H           -8.08244235210440       -2.60109286059216       -1.26269010233164
C           -9.22594255599396       -2.08495556652223        0.48769011358967
C           -9.62235351548121       -1.18631920837793       -1.79997146950332
H           -9.66673755705507       -1.20229540856138        0.94708849612171
H          -10.00859337597375       -2.81243031787882        0.29227288196310
H           -8.49522392072280       -2.51286323428472        1.16949623605961
O           -9.52953215605037        0.11492333521971       -2.04441920180897
O          -10.47320922370186       -1.88922356540680       -2.26973762511379
