42
 energy: -62.486133503506 gnorm: 0.000481030366 xtb: 6.7.1 (edcfbbe)
N           -2.49608650439004       -1.58766706963111        1.80377583880499
H           -1.61409156693919       -2.08458107691749        1.84958967218411
H           -3.23554592444273       -2.26958867214202        1.95839848959910
H           -3.35993186236276        0.07035652447105        2.42327226002491
C           -2.67454655830066       -0.97148013848603        0.48901648799558
H           -1.79219836664201       -0.34076153649272        0.30741094602106
C           -2.83664481240633       -1.95395054756696       -0.66792285356342
C           -3.86161407241607       -0.03269611738195        0.61771830297206
H           -3.60793975619782       -2.68367259999124       -0.43552723315249
H           -3.13048602512334       -1.41307965405102       -1.56064803503783
H           -1.90088250753565       -2.47808024792075       -0.85153416953631
O           -4.00230815408394        0.51873097060453        1.83933326582685
N           -4.62833115962590        0.16635977055226       -0.35788435053672
H           -8.10218286427014        1.76549640899355        0.08862244380568
C           -5.75906300779216        1.05913655433647       -0.23774847212347
H           -5.64636627295821        1.75636102012092        0.60659976034717
C           -5.82365737677378        1.82238903667871       -1.57632537482960
C           -6.97963521058920        0.20481218647925        0.02860026605496
H           -4.82938139670749        2.24908017577696       -1.72790060656491
H           -5.97560412911037        1.07722287069249       -2.35920004290824
C           -6.85853601760788        2.94300220999342       -1.73153896330745
O           -8.18128259324309        0.80640490483985        0.15883819485406
H           -7.87068137930391        2.52199598028569       -1.71510677373921
C           -6.72903311124806        4.00973263398059       -0.64383961681960
C           -6.67093684124414        3.59199000527360       -3.10408888944897
H           -5.72619219388147        4.43135647682911       -0.65458520629127
H           -7.43831704334844        4.81546213069130       -0.82166366115644
H           -6.91567124299972        3.61509574593332        0.35359740820046
H           -6.76701463109643        2.85198740004606       -3.89480421391770
H           -7.41881632026251        4.36503922068164       -3.26519544988139
H           -5.68581611822199        4.04701056557882       -3.17791971793975
N           -6.80542088440054       -1.02447176766903        0.22039999731769
H           -5.61188088502161       -2.22357085403548        0.56838431420278
C           -7.82744861476420       -1.96221530484181        0.59937627785452
H           -8.50962709712275       -1.55212742358030        1.35547160599064
C           -8.64516583651248       -2.44026683037843       -0.60398874875305
C           -7.07882577667097       -3.16595878227435        1.20208883573293
H           -7.97833053304753       -2.80110741677110       -1.38434839219740
H           -9.30239273353002       -3.24764282977815       -0.29327956693840
H           -9.23959072863009       -1.61928602460810       -0.99704375733054
O           -5.76147884792530       -3.08799550729556        1.04074364210587
O           -7.62723432006845       -4.08084804001402        1.74979096761296
