42
 energy: -62.486133505013 gnorm: 0.000479550025 xtb: 6.7.1 (edcfbbe)
N           -1.01658200746129       -1.03742567808629        0.71401450885191
H           -0.03364741290225       -1.09887685698104        0.47889629308815
H           -1.32135318392804       -1.96373412535547        1.00085814372016
H           -2.21471140168592        0.07532978358815        1.74603814427611
C           -1.80495463115187       -0.58377882246344       -0.42978561446993
H           -1.29082246343993        0.28782368390423       -0.85533140686543
C           -2.00664154007378       -1.62843811453645       -1.52658126429636
C           -3.13180449547649       -0.07546173918136        0.11772643064729
H           -2.48376316430732       -2.51870300170998       -1.11949514770540
H           -2.63891982751315       -1.21773318849215       -2.30698032235145
H           -1.04907585266081       -1.91279959978269       -1.95794545514578
O           -3.10609746154433        0.29293348606268        1.40584441911913
N           -4.12991114340832        0.00788722445082       -0.64733457420055
H           -4.93347330512842       -1.69477540942483       -0.87794011447166
C           -5.41373474408105        0.48332527958243       -0.16664217222197
H           -5.37787123672926        0.76044873097163        0.89518451618463
C           -5.74145389751714        1.72315071847904       -1.01909098494567
C           -6.40103175808029       -0.66056315014894       -0.31908195217766
H           -4.95256789052948        2.45222027978455       -0.81478848015045
H           -5.65269790661727        1.42893997786627       -2.06696797968685
C           -7.10060102949897        2.38969724613907       -0.79970540182104
O           -5.86675987917481       -1.85345964119791       -0.63904995605536
H           -7.87845490720382        1.71135048007999       -1.15567949050948
C           -7.35304364232004        2.70981752809463        0.67071137493207
C           -7.16656033405677        3.66861408837827       -1.63416984971190
H           -6.56022209554497        3.34387257974437        1.06309397499050
H           -8.29796234252440        3.23624600405064        0.78208240291396
H           -7.39610927920913        1.79970829128002        1.26257572851016
H           -6.98361033267876        3.45402647454723       -2.68441511408092
H           -8.14865353317157        4.12589892946032       -1.54497896933242
H           -6.42185733384333        4.38630739819834       -1.29536350323814
N           -7.64204127984229       -0.46542967975944       -0.21534178786874
H           -9.12785436250403        0.60161984887676        0.12550415840685
C           -8.58125290516037       -1.55346897638706       -0.38317500105407
H           -8.36853918943040       -2.13534044010837       -1.28878855726730
C           -8.58431993366321       -2.50316794252886        0.82165783673624
C           -9.98255530881710       -0.94071658747648       -0.49644102015954
H           -8.76252647316262       -1.94260204248415        1.73757406987023
H           -9.37314363723163       -3.23967234271805        0.69607713951327
H           -7.62558883668689       -3.00981021955142        0.89603059094976
O          -10.04550201376875        0.32241310968227       -0.09139380359858
O          -10.93791728588527       -1.55769942969307       -0.87846676431230
