42
 energy: -62.486133519336 gnorm: 0.000479043950 xtb: 6.7.1 (edcfbbe)
N           -1.40240949138368       -0.57132749253940       -1.68265718267757
H           -0.78754682474971       -1.24782206494664       -2.11846784769102
H           -0.85662925833175       -0.05822970013333       -0.99549254861156
H           -2.73893526465246        0.71187686159725       -2.19749406010712
C           -2.52713490856555       -1.23631855720958       -1.02391573025216
H           -2.94337585224866       -1.95708138442944       -1.73906284119004
C           -2.17116791834823       -1.96288217035975        0.26954153670621
C           -3.61671919921932       -0.18964408862437       -0.80704525262586
H           -1.73314275675881       -1.26729923212866        0.98237131845749
H           -3.07527835374813       -2.37427768147116        0.70326792221886
H           -1.46200343358234       -2.76523485939515        0.07457601470389
O           -3.54878818868568        0.84556753910706       -1.66421799220404
N           -4.46111248436820       -0.39666848325325        0.09422904505401
H           -7.80509447229087        0.50930711138637        1.48526435965753
C           -5.61175897762783        0.39306936287863        0.43547430287638
H           -5.57947168306996        0.48424582045472        1.53194688419935
C           -5.69471402234170        1.79648160430183       -0.20505498103546
C           -6.83192431582942       -0.42507762243515        0.07455452484294
H           -4.74437765499001        2.29794551401822       -0.01279705473935
H           -5.78309089094181        1.66015704197610       -1.28330943398684
C           -6.83142686141694        2.70561206615694        0.27686318459132
O           -7.98020699850146       -0.14453745130078        0.79779599154134
H           -7.79573738106762        2.21082989425350        0.11785038780945
C           -6.68746352720614        3.08086030821381        1.75231957770544
C           -6.83663533201442        3.97789212618881       -0.57108323018461
H           -5.75133097137026        3.61233704188273        1.91070028760835
H           -7.50388922202592        3.73269550194914        2.05658574936444
H           -6.69133244491254        2.21155736492804        2.40855727907113
H           -6.98654386882649        3.73616654773544       -1.62020615166777
H           -7.63685177789253        4.64338692102335       -0.25485383466047
H           -5.89050739507895        4.50523063057886       -0.47205750852249
N           -6.75335495672508       -1.30674145170783       -0.80532289979541
H           -9.11627938064713       -0.28251334753029       -0.60491810809851
C           -7.79609795830764       -2.19002462272467       -1.25623631426041
H           -7.30095231779820       -2.90126807578046       -1.92745268638093
C           -8.50030314784036       -2.96699045583978       -0.13497137624429
C           -8.85971121902005       -1.46555083150386       -2.09575356577867
H           -9.05774134479581       -2.30349503147999        0.52249857264696
H           -9.18538385997936       -3.68974582327081       -0.57118087320096
H           -7.75593019984421       -3.49528994147548        0.45634316477330
O           -9.45823954681107       -0.43040947924320       -1.50678529089746
O           -9.15559559566853       -1.81881539183428       -3.20146820065292
