42
 energy: -62.486133514034 gnorm: 0.000479466621 xtb: 6.7.1 (edcfbbe)
N           -2.59132238923010       -1.96268433095025        0.60737052096190
H           -1.96247322785887       -2.39946310038179       -0.05607463098156
H           -3.23155066441171       -2.67821571052494        0.94371125335129
H           -2.46592354715229       -0.85045831449832        2.02138855348518
C           -3.34678006868086       -0.87476897717834       -0.01985897420074
H           -2.60603101470945       -0.21367789702533       -0.49953039351692
C           -4.28717361123493       -1.39115838716804       -1.10607737641922
C           -3.87118988279862        0.02458145408743        1.13983727209944
H           -4.89861173231128       -2.20327373068914       -0.72553841519893
H           -4.94146906620616       -0.61787294851378       -1.48988664127383
H           -3.68998901560163       -1.77575973192089       -1.93400997887322
O           -3.08166005196142       -0.10477429810104        2.21196780690489
N           -4.67660768294624        0.98772200703313        1.19027935691397
H           -8.21778308012110        1.48559987867681       -0.12443053390220
C           -5.86878083669973        1.35181591763386        0.50214193041260
H           -6.36105904914268        2.07664257763142        1.17124401207060
C           -5.51403166934716        2.08869656599315       -0.81696185263942
C           -6.84786086661354        0.20936531795371        0.33621149695694
H           -4.76802049227087        2.83774391066314       -0.54034486375039
H           -5.02239954272325        1.38035559471759       -1.48536124163718
C           -6.64104084784221        2.78689141433104       -1.58741125879511
O           -8.11093567874357        0.53173300775738       -0.02252810544521
H           -7.39149027143226        2.04984950467882       -1.89644590612634
C           -7.30705891223067        3.89206242564065       -0.76726233874229
C           -6.05650692487618        3.39171104806720       -2.86554940357150
H           -6.57134153968451        4.64671177890836       -0.49818610675588
H           -8.08966888996007        4.37252591345616       -1.35074571474760
H           -7.75480153452075        3.52326595322398        0.15421636773670
H           -5.60525224406434        2.62134906899528       -3.48663244880567
H           -6.83536880998492        3.88311496825963       -3.44375359525619
H           -5.29328875772821        4.12744966776954       -2.62259515692233
N           -6.51311688263190       -0.96158986846756        0.64758111462030
H           -5.39564038172891       -1.95272280223992        1.65393774903996
C           -7.41370119506933       -2.08999223983573        0.62445055524696
H           -8.25345906130451       -1.91514157788014        1.31273221659724
C           -7.98346595548328       -2.42639926451777       -0.75483037673806
C           -6.61978995332684       -3.28502695639224        1.17941853186356
H           -7.18248274520192       -2.49945824968381       -1.48720822873131
H           -8.49435189154894       -3.38343991758432       -0.69668830842599
H           -8.68338261105901       -1.65883834313682       -1.07152494717691
O           -5.46561347276021       -2.93480575042274        1.74436297654895
O           -6.99371501874867       -4.42166333384498        1.10756352974927
