42
 energy: -62.486133508374 gnorm: 0.000479814350 xtb: 6.7.1 (edcfbbe)
N           -1.59274804660625       -0.47371063274949        0.97127526412775
H           -0.74499365922780       -1.00375425667400        0.80850007359034
H           -1.83373354824599       -0.58178138517646        1.95287913081714
H           -2.36133352011456        1.26163792572020        0.58727498641515
C           -2.68758349814344       -0.97812196155158        0.14103107115409
H           -2.30232232054077       -1.06004713388394       -0.88424060335849
C           -3.25601367345712       -2.32634987357593        0.57449321083909
C           -3.76114122354155        0.10019497347707        0.11640295037214
H           -3.63250565050566       -2.26749699583696        1.59280910296582
H           -4.08014420678635       -2.59585861877389       -0.07592295013136
H           -2.48842905535468       -3.09587826064883        0.52341137337227
O           -3.30485488130135        1.34913997094242        0.34379560465757
N           -4.95238312763223       -0.22501850922616       -0.10237456950238
H           -8.11691282419089        1.26218275858649       -1.44888324941533
C           -6.03566833682315        0.72690044975909       -0.18822325808863
H           -6.13385215426958        1.24730495684179        0.77693795483499
C           -5.84148035135054        1.77855422072229       -1.29850147284963
C           -7.28961462031510       -0.11064066636570       -0.38418823419079
H           -4.77289836999614        1.96976617076506       -1.39811473279834
H           -6.17512955993056        1.35739141968471       -2.25213966897952
C           -6.54035188447057        3.11973282026815       -1.01525654198932
O           -8.32469931550254        0.38968345330353       -1.09150267935713
H           -7.51172760941703        2.94617681484406       -0.53299672900887
C           -5.69798064974682        3.96667385311873       -0.06343493367128
C           -6.77732664311472        3.87865265207857       -2.32053208855738
H           -4.75847154129160        4.24163545432944       -0.53700727028346
H           -6.22761109252526        4.87674156295311        0.20899307644945
H           -5.46771005188284        3.41707501328417        0.84557682363438
H           -7.42072892125118        3.31732076466282       -2.99636518504358
H           -7.24918887947385        4.83808644934009       -2.12180888809011
H           -5.83104388103174        4.06175030928330       -2.82475384629960
N           -7.31281371598391       -1.23936210220179        0.16483416206389
H           -6.39599890201331       -2.42466943276659        1.09030444645952
C           -8.40385882872869       -2.17568017614581        0.09757147443539
H           -9.33622585692189       -1.73651384226467        0.47499834955544
C           -8.64819778730141       -2.71569268219103       -1.31547245030605
C           -8.00767812967034       -3.35251938855288        1.01014226296866
H           -7.71720943445257       -3.09745783623118       -1.72976771254329
H           -9.37467161128797       -3.52216600394654       -1.26827138409498
H           -9.02534124531115       -1.92492668997957       -1.95838815809166
O           -6.75947786161750       -3.27687880713857        1.44846355791955
O           -8.75413481920460       -4.25410260677063        1.27738696872583
