42
 energy: -62.486132296217 gnorm: 0.000621235991 xtb: 6.7.1 (edcfbbe)
N           -2.25004233959529       -1.79725536124577        1.41060799848822
H           -1.91304549163399       -1.12730341317886        2.09397034082075
H           -1.51859232804059       -2.48051384834428        1.25528392036389
H           -4.15790780515687       -1.76879892924270        1.72868018436319
C           -2.61165882099530       -1.12789701238667        0.16370555027489
H           -1.90454757318110       -0.34752588200250       -0.14914133556083
C           -2.74595141223552       -2.16225053489702       -0.95531820162699
C           -3.97524997398951       -0.48819834776670        0.37633715163775
H           -3.45814102227864       -2.93316894433042       -0.66861307975795
H           -3.09573055688335       -1.67689658128006       -1.86148234232465
H           -1.78508059078318       -2.63142280767576       -1.15610044046879
O           -4.72608124005568       -1.08684992008907        1.31107555212655
N           -4.27695374958887        0.52202320877446       -0.30816176586731
H           -6.40004368122044        0.36883799920829       -2.45520210378224
C           -5.58999212043137        1.14485638596252       -0.29174915802568
H           -5.79052535611842        1.51991599643388        0.72022554890855
C           -5.56977787226183        2.30811352632714       -1.28682399267532
C           -6.64472004278346        0.09645684984056       -0.57385036278481
H           -4.82098187651262        3.01923916594666       -0.93397138530454
H           -5.21393133078248        1.94772664045806       -2.25751698802428
C           -6.91510762096195        3.02631949354831       -1.45163421696742
O           -6.91040316403686       -0.20111782930991       -1.86585979169568
H           -7.67631823801658        2.30810232277134       -1.77760127025015
C           -7.38393670949487        3.64668209961371       -0.13728227147889
C           -6.78436347499769        4.10605950340156       -2.52534183771261
H           -6.61588684272230        4.30047939528627        0.27028420831819
H           -8.28291943952187        4.23606932469275       -0.30242339142981
H           -7.61535179943999        2.87911736204524        0.59649509076931
H           -6.47035035072786        3.67730182327730       -3.47490540051497
H           -7.73621986428790        4.60895924391671       -2.67735686706696
H           -6.04850106737917        4.84887562235130       -2.22537266184855
N           -7.15212434552036       -0.51793193010424        0.39679034194603
H           -6.98275658093266       -0.99089303194137        2.15539092949845
C           -8.07257713818512       -1.61995795298125        0.26374772479118
H           -8.97540372131371       -1.32482532554581       -0.28410311938692
C           -7.44920241404104       -2.84254905984434       -0.42210589940464
C           -8.45848472050963       -2.03864399536544        1.69146464714886
H           -6.53460244240806       -3.12575694096096        0.09564821710690
H           -8.15119818114299       -3.67090574403794       -0.38411427136384
H           -7.21557932309720       -2.61311800510818       -1.45823197042514
O           -7.63426874297020       -1.56992028028573        2.61821372121905
O           -9.39167986719854       -2.75346012250207        1.93527823624716
