42
 energy: -62.486133507602 gnorm: 0.000480823153 xtb: 6.7.1 (edcfbbe)
N           -1.12229385062010       -0.74949238691977       -1.38024831453151
H           -0.25609709845556       -1.27322086079631       -1.35450744599188
H           -0.88270620958805        0.23811632977165       -1.39201845856988
H           -2.74542895050739       -0.75770121291804       -2.33900274221775
C           -1.95037771290724       -1.04423031773419       -0.21061705980805
H           -1.95862713932379       -2.13510880784722       -0.08378548738330
C           -1.48451310113656       -0.38983701244961        1.08628864853686
C           -3.37682316501370       -0.63769664781247       -0.55924240963081
H           -1.43782355037759        0.69031300794887        0.96516091998594
H           -2.19410655625403       -0.61465741604043        1.87536649441103
H           -0.50039310974570       -0.75874254955693        1.36724299255799
O           -3.61237957713991       -0.60849427079775       -1.90394207681508
N           -4.18787383780699       -0.39049879034601        0.35674161177504
H           -5.17804156619989       -1.40317179786151       -1.75553331552160
C           -5.55992571840860        0.04548930521014        0.27139639159715
H           -5.91970314577190        0.05701069830404        1.30405744021838
C           -5.55699378832068        1.49254528148558       -0.28478133395834
C           -6.52723844663971       -0.80354042348786       -0.53104927110815
H           -4.79459891965680        2.04225884330665        0.27326269152499
H           -5.23777595915513        1.44696216420002       -1.32973692057875
C           -6.88261023413566        2.25083808127352       -0.19883510791368
O           -6.09028768778823       -1.61994831403074       -1.49864014277373
H           -7.65133487062981        1.67605591248128       -0.72171373548372
C           -7.32560044105446        2.46264621747648        1.24606540677633
C           -6.73349392616142        3.60054974764885       -0.90065880004074
H           -6.57517952003736        3.02965627016946        1.79367428609481
H           -8.26085400814336        3.01607172131159        1.27126414045845
H           -7.48035681033589        1.51418006426212        1.75236841182443
H           -6.44423183905608        3.46751895977506       -1.94079260824817
H           -7.67527871160444        4.14266748652321       -0.87589589207172
H           -5.97571189630073        4.20634715951564       -0.40737227197760
N           -7.75642328353030       -0.65251458430058       -0.27531703214595
H           -9.12898954299030        0.28714367309580        0.49858025564977
C           -8.76946509081675       -1.36224037579511       -1.02278466403473
H           -8.54066057165324       -1.39728438881049       -2.09601067082002
C           -8.94418720749258       -2.79675444301126       -0.51050073816641
C          -10.09474114115347       -0.61701025103965       -0.81823165148144
H           -9.13386417405460       -2.78751178022702        0.56106446161230
H           -9.78496765918106       -3.26086274269339       -1.01838096087571
H           -8.04107769898111       -3.36949907907191       -0.70574529406247
O          -10.05471402307163        0.27781720591350        0.16244983410621
O          -11.07831064312389       -0.83850797903022       -1.46840806820096
