42
 energy: -62.486133508937 gnorm: 0.000480399914 xtb: 6.7.1 (edcfbbe)
N           -2.10885415018486       -2.31488859194335        0.69606153745484
H           -2.30835793616901       -2.34618186103003        1.69059291843228
H           -1.16424393786898       -2.65294689570250        0.55747308743324
H           -3.88879558170415       -2.55423577144076       -0.02766099198506
C           -2.25254405184738       -0.95280797648526        0.18612308433428
H           -1.82469967550508       -0.18166460057371        0.84128984622768
C           -1.60598472307235       -0.84806930094861       -1.19576096327618
C           -3.74331875980862       -0.68418328220378        0.04462015024460
H           -2.02780801961086       -1.59454390985024       -1.86556297342113
H           -1.78262018954568        0.14181784529093       -1.60596578180761
H           -0.53295055012798       -1.01180134811282       -1.12432117132835
O           -4.48739755530389       -1.78886064252469       -0.14858994052016
N           -4.14831185917746        0.50128394686345        0.10028232428877
H           -5.80526160283953       -0.39595361292746       -2.08025886675983
C           -5.51633577237825        0.93874345894873       -0.04880825354146
H           -5.78319805082126        1.38668607084358        0.91475209655944
C           -5.53928081140402        2.03278290443960       -1.13094190933677
C           -6.53879417517497       -0.13919479397014       -0.33331051271563
H           -4.86654562509349        2.82621139315969       -0.80266958875051
H           -5.12495572913278        1.62904724694469       -2.06073322145665
C           -6.93131297067325        2.61213410906312       -1.40767900181962
O           -6.55231629827414       -0.70711277745746       -1.55517222298290
H           -7.59243643792014        1.80670253784086       -1.74707029879595
C           -7.54308838380796        3.23789295993916       -0.15702939062507
C           -6.83037975475017        3.65278412915680       -2.52225078246217
H           -6.86459408962519        3.97210612071921        0.27185028542076
H           -8.47494354267002        3.73828322701829       -0.40937025391457
H           -7.76088484451961        2.48048325693504        0.59090889064474
H           -6.40609107906318        3.21786590356765       -3.42485856495562
H           -7.81441181039061        4.04630482626393       -2.76432395680713
H           -6.19730018408210        4.48035090308123       -2.20954301639339
N           -7.37562592506584       -0.42054173695418        0.56629034189071
H           -8.21194507291644       -0.01820519781948        2.12077695739379
C           -8.39713961968720       -1.42399103198694        0.36239985714633
H           -8.85539968112026       -1.34553889301623       -0.63150466906339
C           -7.83303741817353       -2.83815257323831        0.53837895927961
C           -9.47628495070357       -1.19694104656703        1.42898862622450
H           -7.36489141455153       -2.92990250274771        1.51637938454159
H           -8.63971688702195       -3.56115680457847        0.45804192340293
H           -7.08755698474228       -3.03185988153449       -0.22831588100330
O           -9.10909242567713       -0.33875249907497        2.37487295420907
O          -10.53748274412431       -1.75601898410684        1.42055382038192
