42
 energy: -62.486133512301 gnorm: 0.000480166217 xtb: 6.7.1 (edcfbbe)
N           -2.02848930666196       -1.04928904661787       -0.26558849895270
H           -1.81771225028355       -0.35192185415023       -0.97195641515380
H           -1.85249000030674       -1.96449489211793       -0.66437506314996
H           -1.72327928490448       -0.20023773259952        1.45414340421123
C           -3.41843301627573       -0.94295075503915        0.17956149829879
H           -4.13349077883884       -0.81805711576288       -0.64335197145066
C           -3.76663879577893       -2.18730879554408        0.99827618886556
C           -3.49636067215341        0.26920311366124        1.10861181765033
H           -3.04585558933706       -2.31165178379391        1.80384326717524
H           -4.75860765960446       -2.08811212367290        1.42813538158264
H           -3.74662692526525       -3.07421685505810        0.36891663324185
O           -2.37783978827441        0.42706681190426        1.82582321896947
N           -4.41569555121470        1.09973550358702        1.31599339130529
H           -7.88188798028145        1.25122540325967        1.73235344446286
C           -5.69361887350761        1.32635973137565        0.71908507147920
H           -6.13964656196203        2.10205816181994        1.36018096037197
C           -5.50963625555053        1.92396877749078       -0.69655905259803
C           -6.69999028655403        0.19295799497232        0.62917633073283
H           -4.76763045550670        2.72143870945745       -0.62704919639489
H           -5.10434329468119        1.13928548143384       -1.33752767535079
C           -6.79816185175453        2.46890369907197       -1.32388059453330
O           -7.88010848351812        0.41146797255579        1.25538187073875
H           -7.58901167841187        1.71716292994056       -1.21936384840068
C           -7.25288405127949        3.76390087963250       -0.65401019438371
C           -6.57124966016448        2.71520184656796       -2.81489023180914
H           -6.48058911435452        4.52442880584683       -0.74493307791326
H           -8.15709831695043        4.13523854901279       -1.13080334624397
H           -7.46594667548566        3.62103036122441        0.40242434817099
H           -6.30003294928639        1.79264125282390       -3.32307255750018
H           -7.47389743228786        3.10668895088994       -3.27774025186147
H           -5.77045509863987        3.43689222320892       -2.96050015442801
N           -6.46442140415783       -0.90231573277894        0.04930889378648
H           -5.59526289164109       -2.00312279370914       -1.22684936841528
C           -7.48087494298917       -1.93864363536061        0.01632245538031
H           -7.87309197247523       -2.14817191614913        1.01808516456802
C           -8.65058133549559       -1.57049567752386       -0.90857221739449
C           -6.84927605395475       -3.20665624489625       -0.56280847751863
H           -8.27795071411334       -1.31845954961757       -1.90020203050364
H           -9.32576854926295       -2.41800938517140       -0.98772549329125
H           -9.19201307903167       -0.71968833725556       -0.50443060808636
O           -5.78935146454221       -2.95797453131219       -1.33048931159808
O           -7.28988713542187       -4.30695608711957       -0.38972069224473
