42
 energy: -62.486133510687 gnorm: 0.000480031004 xtb: 6.7.1 (edcfbbe)
N           -1.45044603537244       -1.45975289770144        1.06647728524691
H           -0.45182285368989       -1.60765520870219        0.98949934447058
H           -1.88878923000000       -2.37025510342315        1.17416716876929
H           -2.70395887321007       -0.36254399542507        2.02845164015446
C           -1.97782548883313       -0.78982235825146       -0.12040654294720
H           -1.30750063681744        0.04943907471620       -0.34674295677399
C           -2.09969887593583       -1.68134916790654       -1.35532838552781
C           -3.31983896919600       -0.18363339392008        0.26868355318821
H           -2.78543108825864       -2.50349862273103       -1.15964156257259
H           -2.48246633866368       -1.10041678026121       -2.18773065895266
H           -1.12720122471837       -2.08907158494647       -1.62444425092710
O           -3.49392963623519        0.00623747528927        1.58326936253439
N           -4.14507561016042        0.12660641005776       -0.62973251381924
H           -5.30292985619641       -0.84564019351846       -2.03272806835685
C           -5.44028476443891        0.68769752624791       -0.29455583818566
H           -5.52371344297783        0.94179633937338        0.76642228013954
C           -5.67692386207029        1.93129011727693       -1.16611999281780
C           -6.45613742795298       -0.38037961259661       -0.62549972470922
H           -4.89902524974170        2.66041913277415       -0.92952575662894
H           -5.55069637580037        1.64267476079717       -2.21289794544793
C           -7.05617656955818        2.57117497384772       -0.97774116232955
O           -6.18473243874258       -1.11127955265212       -1.71970447045806
H           -7.82265244804865        1.80714621522812       -1.14371884347308
C           -7.23135394868535        3.13448549327656        0.43014838399806
C           -7.24667247589882        3.68039296184234       -2.01123728640566
H           -6.46096568130115        3.87361879885977        0.64103607871222
H           -8.20232104329775        3.61464234609434        0.52202393093363
H           -7.17330640575320        2.34808855157625        1.17708774928384
H           -7.15745353346685        3.28874425943076       -3.02206111813162
H           -8.23062591965471        4.13029460351472       -1.90552955235341
H           -6.49757364682337        4.45801451819996       -1.87619430123385
N           -7.46629628237148       -0.53839216769397        0.10913360710655
H           -8.66906302334749        0.22607688322255        1.23269447113179
C           -8.47446303831483       -1.53201428186124       -0.18808140659891
H           -8.65310228583223       -1.62979019239628       -1.26663262552871
C           -8.08637424140307       -2.90251230503072        0.37618415694317
C           -9.77643438118246       -1.07610684369641        0.48796227229328
H           -7.85379919512844       -2.81425458880682        1.43552087450526
H           -8.91673621173662       -3.59123524180565        0.24866641074590
H           -7.21412926400178       -3.28518028845074       -0.14830490368849
O           -9.61906183860073       -0.03177426193495        1.29185813802897
O          -10.82920154647698       -1.62430762616944        0.31420815554712
