42
 energy: -62.486132247470 gnorm: 0.000631949735 xtb: 6.7.1 (edcfbbe)
N           -1.93462436312019       -1.30672278144375        1.39086958799926
H           -0.98756604818233       -1.65532621102910        1.30734143976042
H           -2.48795535878618       -2.03029621575612        1.84255447481056
H           -2.93835350102384        0.21330953089149        1.98772741693810
C           -2.49885676360971       -1.00377902693083        0.07620100468778
H           -1.75135030677090       -0.41763137828089       -0.47393826126761
C           -2.88618583415784       -2.23019633741669       -0.74758866408752
C           -3.69839327139083       -0.09409331288967        0.30278815725485
H           -3.61220435641372       -2.82926205233022       -0.20235773458214
H           -3.33962031958158       -1.91002543852382       -1.67886625841585
H           -2.01005790324177       -2.83967424069941       -0.96035123796329
O           -3.70918485886339        0.54457634366608        1.48385422105278
N           -4.57296414398153        0.01243356349663       -0.59432290599099
H           -7.07533722591645        0.51867253922766       -2.44662481096788
C           -5.73072220611321        0.86811107344313       -0.40041373013461
H           -5.78381815671238        1.22316744190222        0.63630886022784
C           -5.64779769601706        2.06140420614290       -1.35617190391312
C           -6.91219860845906       -0.05373426800230       -0.62977408454262
H           -4.73535540695292        2.60943643601171       -1.11045003837990
H           -5.51879281242936        1.69620214833933       -2.38089589947032
C           -6.84396337868279        3.02022447321088       -1.27332120700523
O           -7.50507447640158       -0.09274855678016       -1.83493940955313
H           -7.77789467842309        2.45271856812647       -1.35820131213710
C           -6.86554606887956        3.76703498493625        0.05851266489194
C           -6.77924137920019        4.01819189565175       -2.42934141159912
H           -5.94026446239708        4.32202819910913        0.19772444710743
H           -7.69428320265521        4.47096450894056        0.07979243767632
H           -6.98557043302753        3.08015560005336        0.89189065488860
H           -6.80300560884398        3.50911138112267       -3.39102264574395
H           -7.62240466639112        4.70325580563431       -2.38706990006031
H           -5.86219280926391        4.60077159518990       -2.37330652595404
N           -7.22729247924424       -0.82367602802142        0.31648269815453
H           -7.06397428433687       -1.27687896815934        2.03679353809100
C           -8.26263824627402       -1.82494603546693        0.20314068160103
H           -9.19739614031599       -1.39797298287677       -0.18172095408009
C           -7.84653844906760       -2.99416923836750       -0.69606802005026
C           -8.51436672846236       -2.36546589173626        1.62030200274855
H           -6.88437777434521       -3.38520888285576       -0.37110704151509
H           -8.59329226525838       -3.78027158493981       -0.62731897108824
H           -7.76224938986380       -2.66117177078102       -1.72684303859085
O           -7.65059512840367       -1.90979788398947        2.51904052663518
O           -9.39269006645758       -3.14074701474460        1.87962628455571
