42
 energy: -62.486133505720 gnorm: 0.000480762065 xtb: 6.7.1 (edcfbbe)
N           -1.72712783315757       -1.90981076731841        0.51385122012300
H           -1.35794391639503       -1.45964870872011        1.34513562572038
H           -0.97970610031313       -2.45084725106508        0.09485391424850
H           -3.61488969406523       -2.15712696939219        0.91202774218756
C           -2.23754325793635       -0.91580353646715       -0.42980930723215
H           -1.60704957925458       -0.02110105421671       -0.52170544640966
C           -2.40882053004644       -1.55381510224655       -1.80877061690925
C           -3.61210530700766       -0.48980459504484        0.05795619462771
H           -3.04674978198883       -2.43215187698716       -1.73761925602982
H           -2.86902555659829       -0.83914013554906       -2.48382823809964
H           -1.44305052648553       -1.85252812850865       -2.21141203294476
O           -4.24804888172867       -1.41874882987289        0.79661533242553
N           -4.03692344248193        0.64985352062007       -0.24765375721671
H           -6.09057675373775        0.54361595468407        2.30798125222087
C           -5.36831152265202        1.13409583834244        0.03806073454931
H           -5.26237147969674        1.85738754871664        0.86101032799929
C           -5.86128056913927        1.86871867568510       -1.21656024082094
C           -6.35737500071209        0.06216005903603        0.43913107291503
H           -5.07517503985215        2.55727646579471       -1.52794331515954
H           -5.99034274034953        1.11443993998886       -1.99226804484601
C           -7.17901413155472        2.62491762575973       -1.02285318037742
O           -6.68462459803403       -0.00289932089745        1.78054024562034
H           -7.91686522851513        1.94000477919058       -0.59124975347718
C           -7.02004598159378        3.82813281091976       -0.09517307194578
C           -7.69863143189073        3.08568339753318       -2.38319237347999
H           -6.25755894237099        4.50315457683001       -0.47846391337569
H           -7.95806910602849        4.37424690534214       -0.02647344363384
H           -6.73793222111359        3.52651745790550        0.91083575672912
H           -7.85778541816941        2.23253142116724       -3.03728631218539
H           -8.64328418740005        3.61265701831336       -2.27263317610826
H           -6.98303060568866        3.75578370977853       -2.85509971500509
N           -6.83735257452164       -0.68090164641867       -0.44450957857802
H           -8.46230211313634       -0.28968389529951        1.51061805374130
C           -7.77043091430479       -1.76162076222558       -0.26493344624749
H           -7.80716467472365       -2.27544347485795       -1.23279624981919
C           -7.38700527227630       -2.77068552674137        0.82585219921053
C           -9.19131505632649       -1.25123694174450        0.01497241459238
H           -7.41230513066695       -2.31865421530919        1.81460276429458
H           -8.07690723893411       -3.61057105482957        0.80089561352811
H           -6.37778884609518       -3.12927091222033        0.63990337722788
O           -9.31718015926007       -0.43967137683779        1.06568633987842
O          -10.13517986279576       -1.57203694986739       -0.64936065618478
