42
 energy: -62.486135676902 gnorm: 0.000426188767 xtb: 6.7.1 (edcfbbe)
N           -2.46819079729036       -1.47227027502598        1.79089159384378
H           -1.57527921046699       -1.05225290988175        2.01168396715763
H           -2.39827694049064       -2.47268648565347        1.92804332462690
H           -4.05098570653902       -0.73553315421834        2.35178259483396
C           -2.91427665830393       -1.15152360839194        0.43309234106056
H           -2.15266493414831       -0.60830998841606       -0.13549606694543
C           -3.31784168920294       -2.40733360675674       -0.33983352965282
C           -4.14808575596987       -0.26421275371679        0.55512052691743
H           -4.07514847081884       -2.95852848593069        0.21396743219135
H           -3.72915486218413       -2.11904335359033       -1.30203577980815
H           -2.45431423838273       -3.05066746489681       -0.49903662278797
O           -4.68397704369318       -0.23037789107935        1.78523167428088
N           -4.57133255471499        0.34938474318371       -0.45769111363344
H           -8.01573048346599        1.26926050041627       -1.52295063837794
C           -5.82105748452904        1.07514008358221       -0.40507614165708
H           -5.90875177357033        1.61461140234576        0.55281114968389
C           -5.84516086353292        2.07228385889028       -1.57251556814607
C           -6.97378041360843        0.08199206882651       -0.42617970532765
H           -4.80723842207307        2.33588624562901       -1.78120051726497
H           -6.21916979722957        1.57304975654692       -2.47113058544864
C           -6.63908222925321        3.35811950833071       -1.29093767675810
O           -8.09970903967166        0.40802017555234       -1.09410892364510
H           -7.56268893632412        3.11843736792344       -0.74705848943740
C           -5.82382218373613        4.31200801678911       -0.41993771853922
C           -7.01591199198175        4.04372612570035       -2.60375340001912
H           -4.92541794995913        4.62657488138725       -0.94636869107290
H           -6.40667030450501        5.19699697035663       -0.17479813840727
H           -5.52467379655002        3.83279789444345        0.50896229411882
H           -7.64366699695205        3.40252691036542       -3.22016102855227
H           -7.55958357834910        4.96534400917730       -2.40972592151676
H           -6.11973901352376        4.28814271303487       -3.16945112976250
N           -6.84437933296776       -0.99714898190282        0.20464759186370
H           -6.00487511432045       -1.81190726065518        1.59097833218022
C           -7.85086773958879       -2.02740589584202        0.25415096684773
H           -8.81793621100424       -1.62587362335367        0.58846718872148
C           -8.04814222553241       -2.72909557002538       -1.09208900384553
C           -7.37934887619726       -3.05357473167163        1.29888892797540
H           -7.08436483652795       -3.04458221429499       -1.48686665443829
H           -8.67668641430907       -3.60304839493280       -0.94650040684165
H           -8.51941585095596       -2.05497969593776       -1.80202441444148
O           -6.27049773687971       -2.70218095753195        1.93612461442398
O           -7.95829283004140       -4.08379184956370        1.51101870373119
