42
 energy: -62.486143125563 gnorm: 0.000732937320 xtb: 6.7.1 (edcfbbe)
N           -2.38686889950033       -0.71869338544254       -0.08708337388563
H           -2.22276393352726        0.18395159375040       -0.52033995381886
H           -1.99078623392172       -1.43214465905053       -0.68896519381954
H           -2.60708113345789       -0.44798556183738        1.97465679858028
C           -3.81770453246257       -0.95199197581032        0.11882144770856
H           -4.42112646939247       -0.80280321088853       -0.78961345763739
C           -3.99982222520988       -2.37995397288607        0.63154652412361
C           -4.23978620450618        0.04815238403193        1.19836859661430
H           -3.42663449612458       -2.53083804354466        1.54359967394958
H           -5.04513462533643       -2.57234408315321        0.84254828919609
H           -3.64993482165465       -3.09166599895662       -0.11460239481535
O           -3.39568211365891        0.06130149060899        2.23572290291606
N           -5.17620278071189        0.88872667116846        1.21950023741172
H           -7.47794518490647        0.99412658555001       -1.84173282063756
C           -6.18090940241209        1.12294615017151        0.22588401380483
H           -6.96820933243931        1.67442603978483        0.76536127192949
C           -5.61258974042564        2.05149084272943       -0.87953385159071
C           -6.89059725935612       -0.08562129129985       -0.35540331249476
H           -4.65851123616162        2.43987921067421       -0.51803215771793
H           -5.39774172268324        1.46808689055640       -1.78088403288962
C           -6.51495281686336        3.24861040149403       -1.22005145778838
O           -7.56176644787393        0.08908836992697       -1.51545581197807
H           -7.56439381624734        2.92681143551626       -1.26889533515863
C           -6.40405682781129        4.31925947639545       -0.13700494261468
C           -6.12909369073448        3.83049825444698       -2.57942916663581
H           -5.40140028617027        4.74025289400125       -0.12803393680919
H           -7.11316316273595        5.12296588360484       -0.32048677626337
H           -6.60284537116454        3.89979066268294        0.84566991058872
H           -6.25311199361744        3.09687665231953       -3.37445265333343
H           -6.75012327937966        4.69179760061104       -2.81275668293105
H           -5.09009498491199        4.15210150922716       -2.56956538975268
N           -6.92726385830222       -1.17198525185570        0.28032453033774
H           -6.95708783852549       -1.93985365180237        1.95988182047110
C           -7.71625371902374       -2.29249499798918       -0.18588470342604
H           -8.73289941291336       -1.96277653785790       -0.44517852722315
C           -7.12318426711912       -3.00149602077078       -1.40575207554268
C           -7.84384793735359       -3.28015767757643        0.98467697430200
H           -6.08944771040171       -3.27973535918666       -1.21695214033990
H           -7.69973521807294       -3.90173259502452       -1.59864140165997
H           -7.16607246460925       -2.35115083798573       -2.27546602010572
O           -7.33727512397077       -2.83176116896349        2.12833398332202
O           -8.36208749283001       -4.35591794288791        0.87433054085417
