42
 energy: -62.486133518550 gnorm: 0.000478936241 xtb: 6.7.1 (edcfbbe)
N           -2.38538060990528       -2.43056719372055        0.70373334898957
H           -2.67439557846750       -2.48846606167371        1.67500095899776
H           -1.44761400633289       -2.80843148069468        0.63512074429284
H           -4.09881843209777       -2.54654980327613       -0.22585597589740
C           -2.42120597434934       -1.04508433365217        0.23986537119656
H           -2.00476949920415       -0.32137426216211        0.95363037483529
C           -1.67087129946431       -0.92956930045898       -1.08778013430153
C           -3.88219359400601       -0.69651884353016        0.00374950331839
H           -2.08029702590871       -1.63103855813138       -1.81197893446379
H           -1.76683809592997        0.08043722785500       -1.47498476963318
H           -0.61552429455090       -1.15249543173970       -0.94621349193114
O           -4.64702239952963       -1.74517603303917       -0.34926564895716
N           -4.24656354772959        0.49710749749141        0.12645171033117
H           -6.16943916552045       -0.12712377436679       -2.19956425978204
C           -5.58785706726584        0.99363685538904       -0.08271715036402
H           -5.85330505125945        1.47313655671042        0.86673491535966
C           -5.53106561177488        2.06738550302445       -1.18044631241121
C           -6.64123886898552       -0.06271415065307       -0.34545263668471
H           -4.79956346114882        2.81155586433232       -0.86151013317999
H           -5.14491175080823        1.62541612297833       -2.10581055821131
C           -6.87442883395445        2.75248133766305       -1.45967428086776
O           -6.82253364019924       -0.51156090976604       -1.60254543551763
H           -7.61087892154682        1.99759594715751       -1.75765031458977
C           -7.40603366764768        3.47493060891745       -0.22418036535941
C           -6.70585866964360        3.74035692302603       -2.61365584189507
H           -6.65991769492470        4.16510715216728        0.16352234818615
H           -8.29781985965890        4.04229381731014       -0.47982763173675
H           -7.67090952380522        2.76921428820154        0.55856465170984
H           -6.34442244020527        3.23816437465811       -3.50880040336727
H           -7.65550061510383        4.21387277650931       -2.84985863147798
H           -5.99311296568252        4.51687817273143       -2.34452664348464
N           -7.31725547119578       -0.47818634864873        0.63450570773615
H           -7.90710627893313       -0.28165510813115        2.33269172626991
C           -8.33401665152953       -1.49460029211825        0.47640622454005
H           -8.94446917746970       -1.32587397242816       -0.41953471287849
C           -7.72070318021453       -2.89724250525803        0.40037694551316
C           -9.23640746592919       -1.42976788890574        1.71546153895292
H           -7.10220493315384       -3.07751429641301        1.27726054681540
H           -8.51574902125743       -3.63645648061622        0.36425739697125
H           -7.10253294492686       -2.97765109406519       -0.48956274539337
O           -8.74288636948243       -0.66838408505862        2.68620777612735
O          -10.27256762770018       -2.02759447567433        1.80679006163194
