42
 energy: -62.486133522818 gnorm: 0.000477928805 xtb: 6.7.1 (edcfbbe)
N           -0.90599791202623       -0.40054928781258       -0.59661566351509
H           -0.16900028662882       -0.82533279082859       -1.14684083256835
H           -0.74485024923858       -0.65465260694046        0.37445715211566
H           -1.84979646960575        1.29982890144298       -0.40069727931918
C           -2.21768551293435       -0.89107375985671       -1.02187405309244
H           -2.26341452321905       -0.78073228373028       -2.11348821103705
C           -2.51957707726974       -2.34023831075827       -0.65257313766853
C           -3.26236668177279        0.05832043835100       -0.45617623187729
H           -2.42466983431943       -2.48026008293846        0.42225179790381
H           -3.54059638555435       -2.56955416300613       -0.93720871090868
H           -1.83487990901604       -3.01576235061764       -1.16138152318626
O           -2.81228590166551        1.31229192055306       -0.23109618521794
N           -4.42260066431857       -0.36389425538948       -0.24121196136788
H           -7.21704970682457        0.48260558164881        1.95105949104763
C           -5.50198348449242        0.47022895123028        0.21912178921790
H           -5.27166065430158        0.86035496016463        1.22286554539244
C           -5.76921806431511        1.64597585399900       -0.74575265399455
C           -6.74343371633230       -0.38883791837663        0.26735759819611
H           -4.85921706843745        2.24267252652200       -0.81560181568689
H           -5.96760535964204        1.20141994749914       -1.72282344348539
C           -6.93779140907601        2.55537095361972       -0.35194057329244
O           -7.58753813202572       -0.17408246091489        1.34939413568706
H           -7.82763112930452        1.94533557839862       -0.16146917714914
C           -6.61905145916187        3.38220812145546        0.89321562454377
C           -7.26056756574603        3.48850498075836       -1.51791648674579
H           -5.75121745666385        4.01232907330438        0.71034715968538
H           -7.46083861203776        4.02294386598277        1.14637586884616
H           -6.40297273106299        2.75675418822840        1.75738785293617
H           -7.54742167648803        2.91543169975835       -2.39594252124429
H           -8.08293206795074        4.15117894118122       -1.25864416737133
H           -6.39391461617822        4.09621699571771       -1.76927026797756
N           -6.96345448154470       -1.20848298906007       -0.64564913980933
H           -9.13854644848777       -0.30586054279172        0.43066609723562
C           -8.08130634399441       -2.10538068403066       -0.77186184661101
H           -7.83523617657143       -2.75771776715961       -1.61772998990582
C           -8.34465147455909       -2.97041160956521        0.46853652077390
C           -9.37817922376402       -1.37253793753372       -1.14874953515095
H           -8.64426801875836       -2.36551254446495        1.32157633459350
H           -9.13164350531301       -3.68804557651280        0.25007113171078
H           -7.43578752833754       -3.50814803064606        0.72842438628881
O           -9.76183801148052       -0.40627088336459       -0.31389822528372
O          -10.02151371946545       -1.65866029276948       -2.11775969316118
