42
 energy: -62.486133513017 gnorm: 0.000479532681 xtb: 6.7.1 (edcfbbe)
N           -2.15744829219931       -1.59552337859036        1.28960110730613
H           -1.18522729888772       -1.58381346912218        0.99762451743019
H           -2.46853846075442       -2.56425289608946        1.27727787488149
H           -3.29269449858219       -1.02283658610737        2.68376663728436
C           -3.00304479877333       -0.79631023867881        0.40923842765262
H           -2.42955072182357        0.07093698819697        0.06425081444249
C           -3.53365850805385       -1.56355624518283       -0.80188797261916
C           -4.19548542776860       -0.25437789170191        1.23029719369162
H           -4.07715403344829       -2.44367445267994       -0.46641289160179
H           -4.21542391428182       -0.93532636050895       -1.36280370883222
H           -2.71926973153315       -1.87350369920919       -1.45231261798814
O           -4.13863413170959       -0.54691581295027        2.54903327405745
N           -5.12098614033366        0.38395488843294        0.73381082831192
H           -7.74459022875919        1.13262697600845       -1.77952054498392
C           -6.17188272920777        1.06631188002733        0.13736391591653
H           -6.69908095266097        1.70414988518233        0.87455558940982
C           -5.67158909580369        1.95518574689700       -1.03123286865002
C           -7.16478249477963        0.00905363024174       -0.33116708227117
H           -4.64812400158483        2.24537519135236       -0.79116843981497
H           -5.61971887865698        1.36033635769495       -1.94771225043747
C           -6.50121449781598        3.23023532665598       -1.25684646808265
O           -7.94168606811709        0.26620278489287       -1.40376641288006
H           -7.56347043094808        3.02330182755346       -1.07470435764260
C           -6.07007736960190        4.32117031594123       -0.27950527773614
C           -6.34363914026784        3.72309823261212       -2.69507941933868
H           -5.04330628349184        4.61796206759980       -0.47642191314220
H           -6.70311741189516        5.19860237505622       -0.38079387227874
H           -6.13299100710559        3.96778091218065        0.74578307070323
H           -6.71094329881306        2.98845969695180       -3.40969202015233
H           -6.89784188512623        4.64709009254525       -2.84362202005228
H           -5.29640915234333        3.91692270603713       -2.91338935531628
N           -7.23840773176909       -1.04063501334620        0.35274602134358
H           -6.60833448451040       -1.90729018692321        1.81417270678896
C           -8.10391441447789       -2.15859291620877        0.08719186713944
H           -9.16170970623262       -1.86405050385378        0.13788565394692
C           -7.84053228907345       -2.82165405774992       -1.26797732956632
C           -7.84010568626827       -3.18578343093786        1.20654322171058
H           -6.78140212055171       -3.05426186122811       -1.36409537851294
H           -8.41170770627048       -3.74241864879401       -1.32823551543585
H           -8.13318715260868       -2.15672247146452       -2.07581337967317
O           -6.91273520416877       -2.81015957317204        2.07477384279382
O           -8.41260799069388       -4.23982115323567        1.26613504785103
