42
 energy: -62.486133511676 gnorm: 0.000480002121 xtb: 6.7.1 (edcfbbe)
N           -0.90669387838798       -0.42533850550946       -0.83647984619908
H           -0.14394746636127       -1.06049213324848       -1.03778354946869
H           -0.60843911621548        0.17781839116020       -0.07488307796795
H           -2.11936288197809        0.72072301063343       -1.75861926601409
C           -2.10948585838735       -1.15786712580726       -0.44276533178381
H           -2.24848049039686       -1.96729831342525       -1.17127552428896
C           -2.06807909579820       -1.74924685617935        0.96266929542703
C           -3.28942580693587       -0.20398813312265       -0.61578412748383
H           -1.90405187788426       -0.96201159985108        1.69500796454419
H           -3.01807045176268       -2.22413857118066        1.18143318170969
H           -1.26840210802342       -2.48260116425106        1.04333772354114
O           -3.06601811805060        0.77865023481573       -1.51311401958935
N           -4.34085958249585       -0.42938886610595        0.02844486056891
H           -5.42719423125203       -0.77230206702332       -2.09907291509321
C           -5.56821570689615        0.32810937437224        0.02464036127829
H           -5.84132142087258        0.42469991139017        1.08019166049927
C           -5.55407760378492        1.71916323943536       -0.63353368300426
C           -6.62295079573386       -0.53595402332305       -0.63252814850356
H           -4.74078259605710        2.29709170757071       -0.19038431757331
H           -5.33811413720740        1.61433558557371       -1.69938458427742
C           -6.87061023603311        2.48786018780723       -0.46940217725803
O           -6.31955066354358       -1.04178666967444       -1.84371679494594
H           -7.69236133353914        1.86123099295272       -0.83166278874529
C           -7.14512769229725        2.85041265090928        0.98778884347090
C           -6.81983367985676        3.75810044673248       -1.31780809566982
H           -6.32498598498850        3.44012225620732        1.39269886256104
H           -8.05712181641206        3.43789040946669        1.05897975227309
H           -7.27188196648239        1.96201748785080        1.59990978984347
H           -6.66241208821370        3.51885534000577       -2.36713918214979
H           -7.75228577743818        4.31013621247618       -1.23024564293073
H           -6.00732867471360        4.40200651169268       -0.98718876398560
N           -7.72726527055076       -0.71686662766688       -0.05729957045083
H           -8.96449271650149       -0.12048180860830        1.13069150480928
C           -8.78518334438697       -1.49458759857568       -0.66259086862003
H           -8.84961771805336       -1.33419894034786       -1.74633031172159
C           -8.59595208715743       -2.99122144774568       -0.39321337338580
C          -10.10478277471891       -1.04837148201977       -0.01488851996561
H           -8.49142464001491       -3.16500159597788        0.67571999086036
H           -9.46184455114476       -3.53451809782191       -0.76099811762752
H           -7.70175572352772       -3.34745396908893       -0.89858426807440
O           -9.93595195318504       -0.26282047442505        1.04192702932956
O          -11.18044734149714       -1.39331365154157       -0.41782892851825
