42
 energy: -62.486133512411 gnorm: 0.000480414914 xtb: 6.7.1 (edcfbbe)
N           -1.80511400359159       -0.53586892753177        1.38832356655786
H           -0.88831618488799       -0.94519188335281        1.25332399100754
H           -2.19461595837152       -0.93928381752530        2.23645780590177
H           -2.70017054924496        1.18153877556687        1.37145554546293
C           -2.68209449581572       -0.84013220756670        0.25668679634876
H           -2.12605099657926       -0.59151550148676       -0.65745840864125
C           -3.15506041582607       -2.28938147004094        0.18070246757192
C           -3.85248538006257        0.12689759192635        0.33005937287425
H           -3.66802321553425       -2.56850103865057        1.09800669790262
H           -3.85060982487941       -2.39669690404907       -0.64391604306552
H           -2.30922870478833       -2.95714926554730        0.03050272491170
O           -3.59408993975125        1.27602200947853        0.98570678685260
N           -4.95010108475693       -0.17832253729142       -0.19822291879636
H           -8.32807825174335        1.42047513230887       -0.87469683337023
C           -6.06335271846316        0.73959696843234       -0.18816155474969
H           -6.09439709752100        1.30311451599350        0.75907596638767
C           -5.96989131780574        1.73951993618145       -1.36308957535498
C           -7.32046021196534       -0.10128528280879       -0.26601265442868
H           -4.92558665871964        1.79437697265173       -1.67517861860170
H           -6.52998538870869        1.34207920704043       -2.21409404334520
C           -6.44999664026876        3.15820409524104       -1.01680471912819
O           -8.47334658858601        0.49377876623042       -0.64583416612871
H           -7.33667044356280        3.10559513322425       -0.37009541410166
C           -5.36341790414446        3.91688260922382       -0.25763532352260
C           -6.82992649569520        3.91371290798272       -2.28948534006928
H           -4.51500981827050        4.10674387641434       -0.91147612825594
H           -5.74140489061274        4.87148142914498        0.10102258983815
H           -5.01040669437654        3.34099871124437        0.59361688476966
H           -7.64806364810845        3.42143458255664       -2.81232795290332
H           -7.13987734985685        4.92814946288405       -2.04974364924520
H           -5.97757202192233        3.96702813280534       -2.96300141875467
N           -7.24377986541772       -1.30780412040124        0.07007236799973
H           -6.20240986545028       -2.60008749529758        0.66548080454784
C           -8.34577040660034       -2.23374858155534        0.08014836878487
H           -9.20676369594863       -1.84023623956558        0.63539314219424
C           -8.80065160848262       -2.61996104705007       -1.33129016573469
C           -7.82823078281214       -3.49826315987558        0.79108368434908
H           -7.94729496596803       -2.96347356113255       -1.91255166770073
H           -9.53302961799440       -3.41968094637212       -1.26539230580640
H           -9.24559332311505       -1.76090893732753       -1.82684964543994
O           -6.51949359082460       -3.47900735539868        1.00174001978425
O           -8.53976869119010       -4.41315652351266        1.10339440319013
