42
 energy: -62.486133514960 gnorm: 0.000479447230 xtb: 6.7.1 (edcfbbe)
N           -1.68873705820454       -1.03738524810489       -1.84041152698174
H           -1.04235629950507       -1.78757224431859       -2.05207327563567
H           -1.14012490211083       -0.20470212452143       -1.64481560198498
H           -3.30569056651561       -0.23595874849141       -2.51546606979428
C           -2.51486693407474       -1.37078175424951       -0.68105975559460
H           -2.90305376353126       -2.38504314765769       -0.84153627381665
C           -1.78289757929532       -1.31898391071717        0.65812792965066
C           -3.72693368000161       -0.44160646661893       -0.70095975261094
H           -1.36086651661771       -0.32820319916607        0.81530499386762
H           -2.48628528007457       -1.52130934161113        1.45794705042105
H           -0.98134113386852       -2.05455841723582        0.68503130736631
O           -4.00192816565544        0.07665555136474       -1.90273286881665
N           -4.35452456565484       -0.26725016098300        0.37445968813571
H           -7.09872772829149       -0.39918598353072        2.17739263003080
C           -5.56087763838724        0.51658737948679        0.51733364880878
H           -5.56684088079893        0.81680309639197        1.57598391407978
C           -5.68529151882710        1.76426644191132       -0.36768134032766
C           -6.73385071761160       -0.40676658343178        0.26428329599526
H           -4.75722908490322        2.33523226369570       -0.29837717661663
H           -5.80742294453390        1.42500169341146       -1.39498865037518
C           -6.87179166401952        2.65433682193708        0.02037852978403
O           -7.49301977096091       -0.74773088571756        1.36851096341264
H           -7.75189991784001        2.01963976116038        0.17746445360179
C           -6.59749145691262        3.44531944701085        1.29856841311616
C           -7.18350160099014        3.61545367928499       -1.12476296229326
H           -5.74540682335509        4.10671192036997        1.15414139618668
H           -7.46129062821364        4.05299122219210        1.55935578945675
H           -6.38067704456815        2.79110465972688        2.14028053165736
H           -7.44831576997008        3.06297540255534       -2.02254765646293
H           -8.01600523034776        4.26469171608782       -0.86330065729883
H           -6.31751142510750        4.23660277070924       -1.34368515708979
N           -6.94244386700653       -0.82474263134436       -0.89352903526318
H           -9.09835358773367       -0.66213713420524        0.51286420499238
C           -7.96756508169583       -1.73542101539376       -1.32820722616752
H           -7.72088304834145       -1.97248406070966       -2.36965129823727
C           -8.04865243677980       -3.03846592252712       -0.52084952374252
C           -9.35773462270290       -1.08109724667108       -1.34566875016975
H           -8.35247721842418       -2.85354540528931        0.50720263793408
H           -8.76716094263795       -3.70827869833747       -0.98688000189569
H           -7.07174047122233       -3.51690702670620       -0.51118813079246
O           -9.76404822621799       -0.55209638595996       -0.19140646256314
O          -10.04837347537882       -1.06418586333139       -2.32391702176051
