42
 energy: -62.486133507545 gnorm: 0.000480827426 xtb: 6.7.1 (edcfbbe)
N           -2.60245881009163       -2.21297737319878        1.35660256332103
H           -2.71279695810457       -1.91266264099768        2.31941789096996
H           -1.69890346978595       -2.66249148258057        1.26850256303680
H           -4.39502950805534       -2.55089484394976        0.83404127896133
C           -2.71603436252828       -1.08058667543186        0.44091431584999
H           -2.20527631089224       -0.17223305845578        0.78753103686398
C           -2.16740926524039       -1.47177725304183       -0.93132352585995
C           -4.20500332322927       -0.77044426301288        0.29734058779298
H           -2.67990605834664       -2.35792934762136       -1.29945011156939
H           -2.32244569320643       -0.65631148861835       -1.63107395434579
H           -1.10221441016353       -1.68487580617380       -0.86856045947906
O           -4.98993308251431       -1.83995377129045        0.50700447380424
N           -4.51760435728207        0.39690007761657       -0.02887802207176
H           -7.52686203158682        0.80138477548926       -2.02968627459661
C           -5.79971418505099        1.01715526235461       -0.24541534051824
H           -5.94285872176924        1.65418981852499        0.64044399987669
C           -5.63428603159788        1.93700896195371       -1.46721448101206
C           -7.02720850590323        0.11732530429631       -0.29866882130421
H           -4.61586306131024        2.32608059516642       -1.42173559779012
H           -5.69291063314549        1.34245606254000       -2.38534034181995
C           -6.61723383041530        3.11827984915875       -1.51306975735815
O           -7.84236986292686        0.16507396826917       -1.37624980087284
H           -7.61758974627010        2.78594716050691       -1.21005535727627
C           -6.18243644728863        4.22103430185699       -0.55006125606721
C           -6.70033653122314        3.67532035007518       -2.93422306883329
H           -5.21361975037925        4.61882835412377       -0.84401448278124
H           -6.90415838997626        5.03455953715504       -0.55561953855059
H           -6.10385958347599        3.84486897035566        0.46677230782919
H           -7.06611917321185        2.92653008813746       -3.63493620705866
H           -7.37429193133745        4.52784315464976       -2.96921133033368
H           -5.71777755484531        4.00286118393544       -3.26701072159940
N           -7.23977442146643       -0.64324498942235        0.67842256730309
H           -6.50457232147389       -1.59043675522499        2.06235934787539
C           -8.35047384627611       -1.55832176825987        0.76456405025202
H           -9.30974249747408       -1.03264136171569        0.68524330892277
C           -8.29737763605717       -2.66684033541265       -0.29471348152633
C           -8.25157575628839       -2.23115970776850        2.14155113409258
H           -7.32158889137666       -3.14762136835916       -0.26929671922288
H           -9.06825567611164       -3.40290152881266       -0.08350002173577
H           -8.46017677636820       -2.24662914543039       -1.28340561071464
O           -7.04269579966640       -2.14041057208127        2.68127617864931
O           -9.16544606823886       -2.81232779925646        2.65966180073546
