42
 energy: -62.486133525256 gnorm: 0.000478211484 xtb: 6.7.1 (edcfbbe)
N           -1.00357365916087       -1.17382773427529        0.05061353062919
H           -0.49153341786829       -0.35699163366811        0.36586237727942
H           -0.34520090394719       -1.80302838293390       -0.39244664669213
H           -2.42016970004297       -1.32499551887121        1.31244821435238
C           -2.06483594957054       -0.79295402219174       -0.88143803265526
H           -1.78825584628145        0.02174047416435       -1.56355729797628
C           -2.50144731392745       -2.00578830547022       -1.70462823494393
C           -3.25071482020569       -0.33813010989868       -0.05086353373758
H           -2.78606225434020       -2.82479023117966       -1.04710120563363
H           -3.35307850282924       -1.73640991380052       -2.32219074287121
H           -1.68979114341502       -2.33861864481579       -2.34798241056074
O           -3.26774778410900       -0.84043983290200        1.20949085889281
N           -4.09572181642931        0.43795924983417       -0.55329554092937
H           -5.10668174108485       -0.88093201747049        1.85345843074000
C           -5.30933821083372        0.85423296216077        0.12711830386865
H           -5.05219759561925        1.28154111862072        1.10975230498397
C           -5.96990896029066        1.91483941612019       -0.75560952994754
C           -6.20022298997313       -0.34688272205633        0.36951677815139
H           -5.23934054452655        2.71088650250436       -0.90931009589813
H           -6.16578605117324        1.45316521697363       -1.72286205107672
C           -7.26598210392584        2.50752807864992       -0.19639033466061
O           -5.97443719808928       -1.08644060439466        1.47136078466804
H           -7.96058968621638        1.68888727249018        0.01294039039219
C           -7.02563058053261        3.28763671703181        1.09477196042765
C           -7.89586337192977        3.42066104225632       -1.24674056152353
H           -6.27397322305835        4.05912105992222        0.93937568559163
H           -7.94575025592042        3.76810007541626        1.41974000826613
H           -6.69134258438624        2.63385888992287        1.89646689086287
H           -8.09616586109022        2.87130151418109       -2.16320059408944
H           -8.83420192698855        3.83202822398668       -0.88222942816314
H           -7.22752293747373        4.24686467482165       -1.48014999636892
N           -7.09924341830331       -0.62639997035092       -0.46762826228775
H           -7.78788593033614       -0.43670378710619       -2.12550202339900
C           -7.95965484553077       -1.77475603187297       -0.31359826057669
H           -7.41612523649121       -2.65599352078781        0.05070695507857
C           -9.11792003153433       -1.47691038651260        0.64577149902787
C           -8.54907918164975       -2.08169128079370       -1.69822349821621
H           -9.65719557328088       -0.59163296577129        0.31399457896633
H           -9.79923409307541       -2.32277758483600        0.66183381278075
H           -8.73158740536786       -1.30325934844654        1.64713708760389
O           -8.34012253609234       -1.11489521990114       -2.58329653498363
O           -9.15507406807258       -3.08712855829664       -1.94518046672593
