42
 energy: -62.486133509884 gnorm: 0.000480628529 xtb: 6.7.1 (edcfbbe)
N           -0.92078482416939       -0.70785427526751        0.05261624603511
H           -0.07247801863146       -0.93943117223063       -0.45020603850583
H           -1.02521564458764       -1.38776250509693        0.80174805356774
H           -1.83615518785318        0.81708999769366        0.82712110022703
C           -2.08355706924157       -0.77005145894066       -0.83451502203084
H           -1.82729290068765       -0.21258746626669       -1.74515077844954
C           -2.52881848657288       -2.17959889571672       -1.21581096370397
C           -3.20900019613870       -0.00025248258081       -0.16117046286284
H           -2.73003842971381       -2.76435136475326       -0.31974021938983
H           -3.44442392521466       -2.11689821104635       -1.79420974206987
H           -1.75880753955697       -2.67969260093682       -1.79979986566842
O           -2.80551675996681        0.91446065990610        0.74718625309398
N           -4.39991439738954       -0.23457226902108       -0.48062422629471
H           -6.71579017622467       -0.13284951440781        2.08915578215736
C           -5.48624208840857        0.52160677935200        0.09203283903332
H           -5.23181147260620        0.88271569631583        1.10235063176683
C           -5.79539186413887        1.71947434195541       -0.82275901158390
C           -6.69268733942579       -0.38450134505302        0.15288155195889
H           -4.90112819600546        2.34318017194961       -0.88101092863629
H           -5.99738173679930        1.30464219820798       -1.81062069671977
C           -6.98857330329433        2.56555624175367       -0.36803818470158
O           -7.24000450272690       -0.57871127362059        1.41259607015778
H           -7.84294210589929        1.90358001339472       -0.18755237911642
C           -6.68344626177406        3.34270826683867        0.91135178396990
C           -7.37222067384789        3.53564192702054       -1.48370844374534
H           -5.82558590756292        3.99484545010160        0.76032796839295
H           -7.53667457244846        3.95707416994159        1.18978219699864
H           -6.46373155131470        2.67945748816953        1.74487348642442
H           -7.63551358661665        2.99119043913201       -2.38683372103808
H           -8.22659254054773        4.13900570495607       -1.18640682458218
H           -6.54196042310174        4.20157534585112       -1.71002249627712
N           -7.13201398240284       -0.90042728497696       -0.89409989496222
H           -8.96878628793366       -0.51583091373291        0.87737713111235
C           -8.24317202575251       -1.80380108795452       -1.02973800891204
H           -8.21181096302484       -2.14744193262548       -2.07012067540863
C           -8.18993598871014       -3.02222141852300       -0.09756606769865
C           -9.59666451931568       -1.10055895138124       -0.84315744146118
H           -8.28330464438311       -2.73085569991223        0.94637555541238
H           -8.99773474687355       -3.70555013304746       -0.34753072969255
H           -7.23873487587169       -3.53241541697319       -0.23109819807990
O           -9.75729382164070       -0.44504692809476        0.30685795602251
O          -10.46705772333594       -1.15256602581608       -1.66420846927157
