42
 energy: -62.486133510840 gnorm: 0.000479992194 xtb: 6.7.1 (edcfbbe)
N           -2.42086968343109       -0.78622323442843       -0.77454355125852
H           -2.36348377252682        0.15884877762498       -1.13971620119372
H           -2.20623428798561       -1.42807162273729       -1.52977634729051
H           -2.14845013491013       -0.68501528685123        1.33191779620866
C           -3.75727427128543       -1.05635465467219       -0.23094499989148
H           -4.56710970992145       -0.88322860666646       -0.95246992849801
C           -3.79007100461088       -2.51085711991904        0.23514074427770
C           -3.88141683393128       -0.07413682751557        0.93882859220247
H           -3.10335363073724       -2.67069125438727        1.06391131640092
H           -4.78841269427461       -2.78712345167767        0.55042551424007
H           -3.49147720103028       -3.16356178060650       -0.58419051629216
O           -2.83371263234580       -0.15268333385865        1.77233905090682
N           -4.66572779320137        0.88852663331094        1.13692471965054
H           -8.22999727253604        1.53988323952511       -0.03008799636074
C           -5.91317749905178        1.24907454774363        0.54067686661535
H           -6.39391429337541        1.90547510667573        1.28126702726108
C           -5.56698149278542        2.08612487699782       -0.72476449843191
C           -6.90631516478515        0.15880268822756        0.21145560782594
H           -4.72294268954130        2.71735645394712       -0.43604287054244
H           -5.21127292606912        1.39138906329803       -1.49006182195944
C           -6.64822878365654        2.98390031459910       -1.33851620945418
O           -8.15370573770593        0.58139158775266       -0.10754670289893
H           -7.47635820834267        2.37137730723587       -1.71290984671804
C           -7.17794378728342        4.01712092994700       -0.34456132643380
C           -6.04666398108026        3.70653311087916       -2.54579119577656
H           -6.35752076432851        4.62280211746085        0.03375378963762
H           -7.89086835346723        4.67617161607683       -0.83534063945786
H           -7.67844486806892        3.56305826341409        0.50910862955271
H           -5.67681190997335        2.99294644001349       -3.27859930003780
H           -6.79631944217507        4.33058878834497       -3.02631817075463
H           -5.21950986985069        4.34104755714628       -2.23562934025185
N           -6.61872589912824       -1.06278546446627        0.30863576227644
H           -6.23877128457490       -1.95273229579690        1.96154751413971
C           -7.60996076021957       -2.08754196779856        0.07153473341516
H           -8.63444067845447       -1.68843425875112        0.10320761222201
C           -7.38722997261343       -2.76265561836031       -1.28319399679345
C           -7.50895663294381       -3.12908905671843        1.19475797298729
H           -6.35516867774515       -3.09266988001463       -1.37253789404617
H           -8.04381071373184       -3.62468399380628       -1.35904473465748
H           -7.60854196352725       -2.06712215151526       -2.08934846202557
O           -6.67663178040494       -2.80089050219504        2.18245031818245
O           -8.13938210336829       -4.14788647597508        1.19301108192031
