42
 energy: -62.486133529643 gnorm: 0.000477157535 xtb: 6.7.1 (edcfbbe)
N           -1.50674683926432       -0.87037070924754       -1.73133182951516
H           -0.86802959475037       -1.61225088078153       -1.99078333927448
H           -0.95301738723282       -0.10758651470726       -1.35095920082597
H           -3.01338638568435        0.09793774313229       -2.43792481481884
C           -2.46670329926878       -1.33261422718160       -0.73028340586842
H           -2.87621508498964       -2.28546043540846       -1.09005432248157
C           -1.88207933140940       -1.53222032418614        0.66570353842371
C           -3.63222457776460       -0.34501511297985       -0.72455180703723
H           -1.45014184995826       -0.60126716772646        1.02693123090243
H           -2.67213610952959       -1.82890525666530        1.34631691521995
H           -1.10985700784114       -2.29910189552613        0.64972075844161
O           -3.76173732380493        0.35190399817328       -1.86069606745338
N           -4.35537757227690       -0.29157607753860        0.30103262256312
H           -7.03442285145556       -0.38212443825583        2.18280442375499
C           -5.54057725194688        0.51692313228787        0.46871235774536
H           -5.51457512625018        0.82766825837042        1.52430784425246
C           -5.69813893262986        1.75385518586772       -0.42566006187578
C           -6.72369297930085       -0.40691272325428        0.26151115101317
H           -4.78433494407184        2.34797135347525       -0.37021414780148
H           -5.82037652229594        1.40304539362643       -1.44906743013432
C           -6.90278259942656        2.61993460105123       -0.03829263529175
O           -7.45628846565267       -0.72972852782242        1.38762701898257
H           -7.76857173768802        1.96805695543111        0.12731781752558
C           -6.64078524894799        3.42607576800871        1.23289077426539
C           -7.24069062553407        3.56473193462983       -1.18959924674946
H           -5.79571686828886        4.09547510594491        1.08504476049818
H           -7.51201005020826        4.02667085304446        1.48480374412577
H           -6.42041913513005        2.78250183799658        2.08184550537251
H           -7.49243079084392        2.99874584796705       -2.08272464723544
H           -8.08958963564974        4.19382860354479       -0.93172832306066
H           -6.39126546461895        4.20620934132380       -1.41455027050997
N           -6.96356270988850       -0.83637596224280       -0.88635887343531
H           -9.08458099573964       -0.63466661946966        0.57331296882268
C           -8.01182471290866       -1.73836707632177       -1.28382273081550
H           -7.79444046164008       -1.99228858803297       -2.32779666953620
C           -8.09405017683862       -3.02980868653549       -0.45850470707999
C           -9.39040332143884       -1.05928954029397       -1.27673302801974
H           -8.36991647572553       -2.82816441975489        0.57421758083719
H           -8.83428859237913       -3.69322515405009       -0.89902225410466
H           -7.12497184842633       -3.52379408673666       -0.46661205883749
O           -9.76349370579352       -0.51777338807907       -0.11706490900522
O          -10.10033667857490       -1.03467387944364       -2.24082905464400
