42
 energy: -62.486133532542 gnorm: 0.000477706208 xtb: 6.7.1 (edcfbbe)
N           -1.92772661002840       -2.09321447668736       -1.18912104797761
H           -0.96573017761516       -2.40893547686138       -1.20981405882977
H           -2.21539560360363       -1.92197706417226       -2.14843790693905
H           -3.63912329297272       -2.55533971614032       -0.44674515681037
C           -2.06169869096438       -0.86642400676552       -0.40650788672500
H           -1.53396265682348       -1.02857979566722        0.54307149700576
C           -1.51263277168693        0.38757664715224       -1.08267931574517
C           -3.54078411212094       -0.71440346282536       -0.06972702994301
H           -2.00370285205296        0.53778556968922       -2.04183029943915
H           -1.71298189422685        1.25114704212769       -0.45824272192049
H           -0.44009704318797        0.29563717776527       -1.24234362473829
O           -4.23963183521662       -1.86306331814986       -0.10224939681868
N           -3.98546108200895        0.42041117051144        0.22955376298244
H           -5.42838632539083       -0.90532595397258        2.34214687754993
C           -5.36446442428599        0.72416765991440        0.54447672253090
H           -5.33407798400238        1.23035751860325        1.52065006115870
C           -5.85096377759058        1.72089459968541       -0.51742330912178
C           -6.26759930183340       -0.48339204069097        0.66503434490011
H           -5.09326610964582        2.50249403015873       -0.59557612872849
H           -5.89042439288167        1.19332390696991       -1.47115573380285
C           -7.21575416460410        2.35259377807670       -0.22898768429468
O           -6.18129556144551       -1.19451487805512        1.81280775572289
H           -7.93754180903272        1.55154243761806       -0.04602316637896
C           -7.17328293709789        3.26612980667871        0.99412720382088
C           -7.67060238069261        3.14481368488366       -1.45374953491879
H           -6.40612062088573        4.02823977192183        0.87360868134669
H           -8.13174481239019        3.76342418851478        1.12356665176998
H           -6.96472186187600        2.70574310348099        1.90191144793525
H           -7.74352972254096        2.49903707534062       -2.32521153539949
H           -8.64607765992666        3.59181194652991       -1.27776282806150
H           -6.96339145838457        3.94187908904492       -1.67337891478655
N           -7.07485622668552       -0.76986270904372       -0.25645683395053
H           -7.48921791377460       -0.65599698909116       -1.99472615363267
C           -7.93033028817357       -1.93064576769942       -0.19242126247772
H           -7.42330054503287       -2.78905888232144        0.26571434531615
C           -9.21632670410657       -1.63480676328678        0.58740087444559
C           -8.30998008330760       -2.28514787511522       -1.63792488493306
H           -9.71548094887470       -0.76387460094426        0.16600033144638
H           -9.88140254873417       -2.49112687263113        0.52194043109599
H           -8.97987737380145       -1.43895827095280        1.63058712328569
O           -7.96236343584893       -1.35019930608645       -2.51525610142881
O           -8.88088039894113       -3.29615368489833       -1.93980730502333
