42
 energy: -62.486132325252 gnorm: 0.000616154338 xtb: 6.7.1 (edcfbbe)
N           -0.90447104012817       -0.64114961787446        0.56990026140850
H            0.05816859355461       -0.62184146061833        0.25701690038221
H           -1.05764710997307       -1.53303765384055        1.03273407671722
H           -2.14880751555358        0.47031931718947        1.51980993593661
C           -1.82832011912577       -0.49454971169726       -0.55335296107999
H           -1.45246057964435        0.32076104992748       -1.18422458872825
C           -2.00097863599993       -1.74899592366913       -1.40876011016559
C           -3.15725037007342       -0.01865803448062        0.01808894359521
H           -2.32625688392394       -2.58578059515745       -0.79208504136618
H           -2.74968804378719       -1.56551836891493       -2.17242401458032
H           -1.06043492662732       -2.01405422925085       -1.88701571529819
O           -3.08125188695826        0.54815701848724        1.23125921381759
N           -4.20792867412069       -0.14552890808122       -0.66535184028631
H           -4.95160939734343       -1.98311374303795       -0.41515921393989
C           -5.49038455074929        0.29625748701863       -0.15492411925725
H           -5.42777141261452        0.51808446916117        0.92184433974071
C           -5.95424718959437        1.55488418783003       -0.90186936147752
C           -6.45819296764786       -0.85848052980016       -0.32024908579976
H           -5.07515882755987        2.16371133116970       -1.12348895465178
H           -6.39436090861656        1.24592423181203       -1.85021571509782
C           -6.95954948202595        2.39017434824735       -0.09977995482579
O           -5.91189014567017       -2.08865511762985       -0.30109168976159
H           -7.65295518575208        1.70634648787441        0.39806307886673
C           -6.24764823362390        3.22815572431957        0.96090774147907
C           -7.75251089744672        3.30039434206735       -1.03537582847049
H           -5.60452720999959        3.96811007246393        0.48817016902996
H           -6.97203000561696        3.75127058519807        1.58067760362648
H           -5.63261080286305        2.60745165591493        1.60798663314911
H           -8.31190236592487        2.71962999162325       -1.76436800921681
H           -8.45689238819208        3.90434958156355       -0.46852413755654
H           -7.08133369657499        3.96983941124896       -1.56972990303032
N           -7.68499706957161       -0.63979786223872       -0.49933000553498
H           -8.97530052335431        0.48527728070879       -1.10578005030470
C           -8.62991506854176       -1.71747586185675       -0.67954985429277
H           -8.21044614327172       -2.53679909305460       -1.27801179089653
C           -9.10195665732095       -2.28025690466820        0.66529708815650
C           -9.84488625654743       -1.13591106421729       -1.41754362276191
H           -9.48532052686256       -1.47650876637306        1.29072186418479
H           -9.89196460500165       -3.00577716233466        0.49320529466660
H           -8.27190018851113       -2.76217264143518        1.17607574428751
O           -9.81972171041136        0.18747091864590       -1.51958603004927
O          -10.73687965211967       -1.81453208729096       -1.84503225530273
