42
 energy: -62.486133524534 gnorm: 0.000478329092 xtb: 6.7.1 (edcfbbe)
N           -1.51605145289347       -0.96992951072303        1.08080721158319
H           -0.57484133601789       -1.28903547680873        0.88642199729501
H           -1.92532357202807       -1.61550375365634        1.75089450333838
H           -2.49283838533059        0.60780949240232        1.56559985892963
C           -2.32449876920747       -0.94627118163447       -0.13750415881899
H           -1.72314156674194       -0.46732409183445       -0.92071467056735
C           -2.78533928889848       -2.31916060245962       -0.62237706663696
C           -3.51193505858613       -0.03205639284187        0.12963466436017
H           -3.35821703428277       -2.81621347250590        0.15771199458624
H           -3.42582257686762       -2.19863169596371       -1.48908584068460
H           -1.93043270718590       -2.93885427890746       -0.88559392900590
O           -3.35348534687336        0.82339409763856        1.15193149296342
N           -4.53336238268791       -0.11302309193038       -0.59931695518815
H           -6.65711428947826        0.21942963394398       -2.52464078037225
C           -5.67669743244136        0.75081883882549       -0.36221906786438
H           -5.72711580780589        1.04140572109446        0.69431399042388
C           -5.58320733371644        2.00736185007172       -1.23656761531353
C           -6.87070796042014       -0.12704790340668       -0.66281924375021
H           -4.74186775330751        2.59672249595219       -0.86524452725616
H           -5.33461192240859        1.71836532000487       -2.26380517357858
C           -6.84860506025573        2.87421438989086       -1.23074095342221
O           -7.24963413495800       -0.27519159747310       -1.94479160802434
H           -7.69662013427469        2.28200788040564       -1.59308470930509
C           -7.18130302577815        3.37146467969088        0.17393027751552
C           -6.65214871387709        4.05881989205813       -2.17619747197379
H           -6.32837218503836        3.89059226371590        0.60565441276548
H           -8.02047052262059        4.06221411889701        0.13616341832049
H           -7.45361437437857        2.54577871749077        0.82596204275611
H           -6.42542742798324        3.72016160069143       -3.18520725931313
H           -7.55254307476907        4.66682767907560       -2.21553076764509
H           -5.83132599981301        4.68436280987066       -1.83202686589466
N           -7.38811638549988       -0.77256625053417        0.28720113531837
H           -7.62103667637319       -1.02585035897533        2.05769401160343
C           -8.45905475639986       -1.72153963685286        0.07620989741151
H           -9.24489088180467       -1.31208295029743       -0.57072841625437
C           -7.94607836870407       -3.02987712379648       -0.53608177010882
C           -9.06461921041685       -2.03434624124740        1.45260464049750
H           -7.12417652123329       -3.41936388947127        0.06128037345506
H           -8.75237311787725       -3.75775004660154       -0.55314985201355
H           -7.59381862369535       -2.85268497835795       -1.54867658849141
O           -8.36526700711561       -1.53149982953544        2.46311682454592
O          -10.06008307460696       -2.68797294151908        1.59790762887176
