42
 energy: -62.486133492210 gnorm: 0.000482498486 xtb: 6.7.1 (edcfbbe)
N           -1.99364593941242       -1.76296767364372        1.24763843251002
H           -1.67894960584446       -1.09004987431931        1.93895431966912
H           -1.23427023012893       -2.41085001527557        1.07443020318493
H           -3.91911757727526       -1.79175931230035        1.58857248556411
C           -2.39231438577420       -1.08784176446422        0.01507165972716
H           -1.70710949282413       -0.28912426376889       -0.30160733026274
C           -2.52384201968572       -2.11387037513366       -1.11188473126926
C           -3.76087826125546       -0.47812766170744        0.26457882908247
H           -3.22541238600863       -2.89492489433132       -0.82665362252584
H           -2.88333388346660       -1.62602529358813       -2.01278665746364
H           -1.55907115461633       -2.57049444788382       -1.32214600748859
O           -4.49498373983970       -1.10686025891378        1.19086252926784
N           -4.11016850705017        0.53447892948536       -0.39636141560322
H           -5.76359917236562       -0.01790126047030       -2.35421624460875
C           -5.44518995623206        1.09675736511548       -0.26264520687565
H           -5.61452500396229        1.40550712299722        0.77530772212825
C           -5.55426568228636        2.30130729989778       -1.20452135590246
C           -6.45761850701085        0.02220425844579       -0.57726246430621
H           -4.89585144100094        3.08258279502766       -0.82195136665292
H           -5.16792933996351        2.01830551009430       -2.18807067204043
C           -6.97757068164760        2.85064729559154       -1.35162170047508
O           -6.43809610157412       -0.47342405411744       -1.83384567197369
H           -7.62392047867441        2.06119066071178       -1.75254207658145
C           -7.54964729405279        3.29934355262635       -0.00921630281631
C           -6.97173222740090        4.01597852004300       -2.33983655567621
H           -6.88414262687278        4.01629995132778        0.46684111387909
H           -8.51667749583092        3.77470717811564       -0.15574006187505
H           -7.68795515332204        2.45172006287027        0.65643393988414
H           -6.58031444048423        3.70503118858221       -3.30618740146904
H           -7.97990458817154        4.39556112945639       -2.48638805166634
H           -6.35153885915203        4.82659431195773       -1.96342970605793
N           -7.21463203958856       -0.40912372784838        0.32903609214317
H           -7.82441333287578       -0.35164725701111        2.03118408751184
C           -8.14834667607059       -1.48932499047834        0.10555788647144
H           -8.75730967578475       -1.32161571143030       -0.79148811466908
C           -7.43762414991483       -2.84185789718402       -0.02152344786398
C           -9.06980916119924       -1.54657865152469        1.33281714287284
H           -6.78244429950959       -2.99179490637898        0.83429374678054
H           -8.17855215306705       -3.63588633909024       -0.05124291535901
H           -6.84460508552009       -2.86471057621317       -0.93223210787559
O           -8.64013378257039       -0.80750800895951        2.34775294650891
O          -10.06474465329671       -2.21597372741657        1.37500319216814
