42
 energy: -62.486133516499 gnorm: 0.000479166292 xtb: 6.7.1 (edcfbbe)
N           -0.78749831708843       -0.05888079794423       -0.79476521371289
H           -0.03901639782911       -0.44645593356535       -1.35591025174142
H           -0.49405755694492       -0.09645333133472        0.17744089857007
H           -1.94401278286780        1.47020932270074       -0.79778405935760
C           -2.02459805458727       -0.81665951213655       -0.97254160431436
H           -2.16202278414081       -0.96572475973941       -2.05148486923018
C           -2.04722785403847       -2.17481199968508       -0.27429891606856
C           -3.17149556260909        0.08155615089123       -0.51667827576691
H           -1.94719773692742       -2.04712822194081        0.80190620334805
H           -2.98708868523107       -2.67573541912329       -0.48019773534220
H           -1.22919493329255       -2.79634257106405       -0.63326393644215
O           -2.88810459323157        1.39249642973159       -0.54773128048980
N           -4.25215378466582       -0.45537673549221       -0.17086527934685
H           -5.22425918520388       -2.00903802839225        0.82790157464502
C           -5.46660298773351        0.22346897088255        0.23904837346204
H           -5.37147269782194        0.46000757120673        1.30947869814452
C           -5.83255693178440        1.49334741794445       -0.53457071345064
C           -6.52037046937285       -0.86170926996081        0.10028953143716
H           -4.95723919425456        2.13989297994163       -0.58449318901010
H           -6.09538791067415        1.19671261103360       -1.55128588856351
C           -6.99086221152554        2.27871602709120        0.09319233362040
O           -6.17847079118538       -2.04194787335344        0.64916556817809
H           -7.77978661626433        1.57608817567431        0.37544236651576
C           -6.53716011030687        3.03488569291416        1.34060919848343
C           -7.55553471065941        3.26362069638600       -0.92906601168179
H           -5.74998755577451        3.74290172294138        1.08911157661764
H           -7.36972561452455        3.58706250864074        1.77054630888237
H           -6.15748986261746        2.35702189096726        2.10141182270028
H           -7.93152174851491        2.74245026048283       -1.80603188053097
H           -8.37347180129895        3.83442446525538       -0.49585246804288
H           -6.78312807457085        3.96080606682553       -1.24746128109158
N           -7.57219362988191       -0.67063817910139       -0.56199771681665
H           -8.51783110416932        0.33674495491764       -1.72229054011466
C           -8.55359007590077       -1.71123539990371       -0.76147357660115
H           -8.08567680495656       -2.67124174241714       -1.01483305394793
C           -9.43498012547524       -1.90383307555543        0.47733032340872
C           -9.44702319543874       -1.26502879100065       -1.92888183645492
H           -9.88013580108342       -0.95427589748777        0.76842938552967
H          -10.22618755540752       -2.61229140577468        0.24913030366549
H           -8.83502436047941       -2.28257647717202        1.30102139086690
O           -9.24936375890405       -0.00333677796019       -2.29137128682505
O          -10.25548733295279       -1.98371755815100       -2.44738991876418
