42
 energy: -62.486133509287 gnorm: 0.000480434860 xtb: 6.7.1 (edcfbbe)
N           -1.30771428707487        0.10609579652371        0.44197467257872
H           -0.46036192412282       -0.31402955148601        0.80878627553466
H           -1.97436674948682        0.19963960492004        1.20116388244495
H           -2.90998483710287       -0.19834942728638       -2.75864277509443
C           -1.88444489832707       -0.73658613394727       -0.58752168067107
H           -1.27831385900117       -0.60459103894904       -1.49725002358794
C           -1.92575412231119       -2.23402167818411       -0.23106358969918
C           -3.30066373828837       -0.27419950684469       -0.84940396905996
H           -2.52631290719797       -2.37505974155696        0.66443422554740
H           -2.36294029253280       -2.81577811914248       -1.03980439816630
H           -0.91760741940316       -2.59979216088514       -0.04718934582125
O           -3.67061338067176       -0.13922094499339       -2.16737553401067
N           -4.05892581807637       -0.10616773708301        0.12908967866506
H           -5.23740191306764       -1.08414268427060       -1.84770744037646
C           -5.41859244717646        0.37290770406187        0.13728696968210
H           -5.66298751269517        0.51632593315505        1.19349946240465
C           -5.54243935484625        1.72249869739803       -0.60565502580050
C           -6.42681434360609       -0.60465650388116       -0.42851432088555
H           -4.73626066116883        2.36505181168495       -0.24286760032833
H           -5.37537042687274        1.54843592585515       -1.67147061535715
C           -6.88353200601920        2.43780743901108       -0.42241309022080
O           -6.07939447048900       -1.37983675025357       -1.46802914866400
H           -7.68871991481633        1.75759462625931       -0.71566933863634
C           -7.11087435949877        2.86675722458398        1.02456574180939
C           -6.92806075729266        3.66002214707007       -1.33906248425634
H           -6.31393105065806        3.53110554918161        1.35266447492954
H           -8.05663609564001        3.39557548365166        1.11083077933617
H           -7.14425107738161        2.00924500872455        1.69050754847848
H           -6.79981132624417        3.37052961675874       -2.37971838445032
H           -7.88385323995079        4.16857264175677       -1.24250410840672
H           -6.13801806318982        4.36103381064533       -1.07711664540481
N           -7.59202326877034       -0.58245641442573        0.05540975279779
H           -8.88030909714096        0.30566829266469        0.99781595829473
C           -8.64946308224756       -1.41036879781135       -0.47739019374165
H           -8.62032149330261       -1.45899998957281       -1.57408785883036
C           -8.58240701704612       -2.83622667762867        0.08022352626594
C           -9.98237741765946       -0.78224941630569       -0.04487659588290
H           -8.56631805882620       -2.80871567256825        1.16787028472416
H           -9.45526763475875       -3.39207323528470       -0.25035178309025
H           -7.68142623767077       -3.32982335590239       -0.27551479448344
O           -9.84730110452274        0.18997109242982        0.84931562641323
O          -11.04402359138974       -1.14951829947709       -0.46530299409159
