42
 energy: -62.486133506215 gnorm: 0.000480788538 xtb: 6.7.1 (edcfbbe)
N           -1.77402929851509       -1.90623618540211        1.03199360026662
H           -1.67797233032675       -1.48453933386205        1.95000416656039
H           -0.89973579094318       -2.36621363986020        0.80780470502186
H           -3.69547220735079       -2.25547487878603        1.00300046359422
C           -2.10014284552818       -0.89312124752136        0.03147352594477
H           -1.52477474111226        0.03786756743159        0.13110548553711
C           -1.88418894485745       -1.46537144869136       -1.37115662501257
C           -3.57412883182030       -0.56472261354317        0.19441738911050
H           -2.47974266487328       -2.36619109088729       -1.50567048787077
H           -2.17231670503673       -0.72881236690016       -2.11571909124373
H           -0.83609967591639       -1.71685893438919       -1.51853858780851
O           -4.31397510212129       -1.54521164291018        0.73708729449838
N           -4.00192185042047        0.55375209545322       -0.19194980963586
H           -5.16215813820187       -0.66779281846644       -1.91121127321192
C           -5.40672333374213        0.90235311345823       -0.11689621096584
H           -5.63313352029363        1.21853966645425        0.90637221565659
C           -5.64444381685916        2.07316453815119       -1.08540802319269
C           -6.32429890450276       -0.24735644107589       -0.45865144394475
H           -4.91689064606853        2.84832786881372       -0.84109279265557
H           -5.42773896791131        1.73124118601742       -2.10135978036153
C           -7.06132321282848        2.65360342047150       -1.04296754510407
O           -5.99756440482132       -0.98333639568211       -1.54094276638081
H           -7.77912745744753        1.84207292185542       -1.20286111848782
C           -7.36619961650904        3.31015709001393        0.30074557908573
C           -7.22415213449896        3.67396898543119       -2.16886422099621
H           -6.64403778553306        4.09659997840656        0.51050972147387
H           -8.35957113879383        3.75145374158493        0.28300864541282
H           -7.33721476589717        2.58461049681240        1.10859584835425
H           -7.04461067469599        3.21491960134201       -3.13853304607579
H           -8.23137103156910        4.08292140838680       -2.16704155698036
H           -6.52033166036196        4.49387587016545       -2.04119976042139
N           -7.37570008481860       -0.42088432981480        0.21097187924303
H           -8.64561657723819        0.26283471138326        1.30590881447768
C           -8.31612032430983       -1.47040159244099       -0.11114840590671
H           -8.44762367971807       -1.58944458629863       -1.19441484990092
C           -7.87347620171165       -2.81079487230104        0.48521777646550
C           -9.66339193636377       -1.08072865158069        0.51294778053910
H           -7.71029521852650       -2.70283493385295        1.55541175824780
H           -8.64584951633474       -3.55497012897667        0.31270519356760
H           -6.94532836754286       -3.13099589723715        0.01892485822865
O           -9.58412742065085       -0.03878381826423        1.33248395516667
O          -10.68326972372559       -1.67321222442715        0.29387191647371
