42
 energy: -62.486132231712 gnorm: 0.000635289235 xtb: 6.7.1 (edcfbbe)
N           -0.99642494777694       -0.53270529881179       -0.80857305058792
H           -0.33094161513903       -1.12295862546195       -1.29267968699777
H           -0.67894635735286       -0.43812524124256        0.15219418355345
H           -1.94790159697398        1.12245851630588       -1.07426108074736
C           -2.33308068968966       -1.12608397206179       -0.83159320104199
H           -2.53537895636259       -1.42649874391827       -1.86777838827316
C           -2.51492339655838       -2.33344684347233        0.08342816379365
C           -3.32844415481598       -0.01600060495774       -0.51013746364922
H           -2.28408745077349       -2.06306990783222        1.11159295178654
H           -3.54720427564773       -2.66173540577779        0.03890213504100
H           -1.86165448118045       -3.14751397736994       -0.22429992187735
O           -2.87845667815926        1.22130760626727       -0.78665143212872
N           -4.44514572376776       -0.33162973525673       -0.03569389555160
H           -6.46892910617855       -0.71579234417535        2.10713305401220
C           -5.53603502198338        0.57161313837151        0.26486227244820
H           -5.39261949730459        0.94504603085197        1.28976209001775
C           -5.67990957437918        1.75837972270968       -0.69869273154810
C           -6.74510717020217       -0.34147326995680        0.23469512612031
H           -4.82712005126897        2.42084228573717       -0.54866585693253
H           -5.63178644275835        1.36171052172070       -1.71346822768535
C           -6.97372744570428        2.56583842399308       -0.54916487318855
O           -7.08942975000376       -0.93538293067298        1.40189128293141
H           -7.80575463383868        1.95176248441561       -0.91011015070162
C           -7.25041452512118        2.97268717408550        0.89641018803336
C           -6.88884390761934        3.80790150858608       -1.43539764040039
H           -6.38826957725089        3.48548654226959        1.31863227285127
H           -8.10187595526838        3.64852967894843        0.93816101632036
H           -7.48365240839411        2.10977530707426        1.51566593715505
H           -6.68599009382960        3.52751069607450       -2.46594819512202
H           -7.82434907841131        4.36196772567958       -1.40752478106153
H           -6.09108380039348        4.46404645295927       -1.09422669304716
N           -7.32404912337276       -0.58913551190959       -0.85546679683476
H           -9.14544143810056        0.57587194798757       -0.21169685735622
C           -8.39480658316490       -1.56463092725348       -0.92385325281406
H           -8.83851124144583       -1.44506483057463       -1.92450100305523
C           -7.88828587017613       -2.99721844386806       -0.77081033312031
C           -9.51870614367316       -1.28343335917383        0.08063448354947
H           -7.44244639009021       -3.12688089026273        0.21123138278626
H           -8.72259222572835       -3.68571726885220       -0.86774776561543
H           -7.14415297407921       -3.20868804583255       -1.53401204498445
O           -9.77209319743828        0.02030411021430        0.27839581963860
O          -10.16761771185083       -2.13187951999460        0.61829805392011
