42
 energy: -62.486133512633 gnorm: 0.000479396140 xtb: 6.7.1 (edcfbbe)
N           -1.12938976540211       -0.70269453495524       -0.33154140334132
H           -0.44501566260198       -1.42691653085541       -0.51313623185708
H           -0.87824015745133       -0.25972911321447        0.54838564280036
H           -1.99597812669343        0.74729059238596       -1.21199260360129
C           -2.47450030061278       -1.26882448460572       -0.23155806911725
H           -2.60600730299951       -1.94639200709061       -1.08527955097937
C           -2.75359340961798       -2.02904870572830        1.06171425936488
C           -3.46374105376318       -0.12264752729757       -0.43092080904169
H           -2.58967551441446       -1.37993482013578        1.91943561367019
H           -3.78916723568937       -2.35056616693540        1.07163731879417
H           -2.10166415915099       -2.89650316051995        1.14278637070079
O           -2.94957934620591        0.93568520102049       -1.09072171544096
N           -4.63373684102310       -0.26891995736117       -0.00813099371277
H           -6.40451913040000        0.32140652979176       -2.42429211453618
C           -5.73408347835996        0.66078031975975       -0.09655694400266
H           -5.98801815379788        0.88402135076503        0.94672476477082
C           -5.53295985655964        1.97193853874311       -0.86640906146409
C           -6.87233757023012       -0.18675462072440       -0.63757208631885
H           -4.73686611572519        2.53396712098507       -0.37572243353203
H           -5.18161620918325        1.76547642517228       -1.88249506532289
C           -6.79749202240893        2.84008049692986       -0.92619507004443
O           -7.03080872231286       -0.26017839972156       -1.97404629198466
H           -7.62253581817666        2.25400514820304       -1.34783226071925
C           -7.21781058749995        3.32042474929904        0.46109386791214
C           -6.54401730599761        4.03953807724100       -1.83901124360630
H           -6.39589782952529        3.84080955287491        0.94844854500665
H           -8.05666404618663        4.00767686490555        0.37916862087690
H           -7.52674706721672        2.48882320055358        1.08887639605576
H           -6.27125672235596        3.71746677259988       -2.84203720695503
H           -7.43522797054941        4.65817901433360       -1.91120794283241
H           -5.73432260898843        4.64920345372488       -1.44382297055331
N           -7.55887981047961       -0.86249964955365        0.17146210031925
H           -8.11169251413721       -1.20654675873412        1.86410030392999
C           -8.59308789833844       -1.76933753671225       -0.27318969994568
H           -9.21445608833715       -1.32978904922188       -1.06347362183296
C           -8.00091372551702       -3.08797304022451       -0.78386733465224
C           -9.47694090575135       -2.07884578247498        0.94390853290210
H           -7.34551132911237       -3.51538743886237       -0.02781712621832
H           -8.80629528280875       -3.78543377847092       -0.99628837984093
H           -7.42667073072751       -2.90934902800144       -1.68922649305029
O           -8.95276603730282       -1.66850114623624        2.09232924412763
O          -10.52550683136768       -2.65602598143941        0.86320824692397
