42
 energy: -62.486133502727 gnorm: 0.000481032928 xtb: 6.7.1 (edcfbbe)
N           -1.63993231317999       -1.81226446203533       -0.01303446814784
H           -1.40937332388588       -2.79859015600345        0.01831004927617
H           -1.29368901031619       -1.39084791284978        0.84471067579984
H           -1.54107634488710       -0.27245018216192       -1.16034888180360
C           -3.08494102566980       -1.61409386541576       -0.10879079360474
H           -3.45305523003441       -2.27242117802361       -0.90665004206816
C           -3.85607496334196       -1.89524130058455        1.17878806717392
C           -3.33064003165462       -0.17057609425073       -0.58728912447473
H           -3.46917041906750       -1.27866383116990        1.98830546329876
H           -4.90411104070834       -1.65051501148479        1.03418570453401
H           -3.76712660661437       -2.94260809441296        1.46137935328737
O           -2.27052357281641        0.37582756330429       -1.22773539900999
N           -4.37190870092667        0.45351493317453       -0.39800652733701
H           -6.78451075728287        0.63404192428836       -2.42953623424190
C           -5.60945569064759        1.08792446276527       -0.31390231612803
H           -5.73993049726471        1.38149286420905        0.73479361338038
C           -5.69844146670492        2.34278992903250       -1.20734080964295
C           -6.66580568128718        0.03153638341481       -0.61636246338658
H           -4.88670948406359        3.00609883609868       -0.90380750092532
H           -5.49014642561675        2.06673133379778       -2.24671799615613
C           -7.03312557817606        3.09375670879152       -1.11127843142126
O           -7.13488306095379       -0.07410362959814       -1.87301226160559
H           -7.86226734589955        2.39466474978371       -1.27407003327934
C           -7.21563899184093        3.72862394817930        0.26569849359772
C           -7.09333260120854        4.17130530970684       -2.19385359625170
H           -6.38296088138454        4.39119449719693        0.49155078219346
H           -8.13320637568315        4.31190586777168        0.29021654580553
H           -7.27897770562013        2.97196773168677        1.04340983831039
H           -7.00128014099618        3.73610821560659       -3.18708164698839
H           -8.03761563687338        4.70812318156213       -2.14483130140400
H           -6.28516040183778        4.88653210814981       -2.05807893149781
N           -6.97398046709123       -0.78394736182567        0.29605457646199
H           -7.08592487648245       -1.16815762455809        2.06712095902954
C           -7.87461307567079       -1.89205539751978        0.05977640869731
H           -8.78211549838284       -1.56257030193417       -0.46302742375641
C           -7.22401743382062       -3.01476695915551       -0.75503352444482
C           -8.28432825890062       -2.44991452569019        1.43172883208218
H           -6.29930178065945       -3.33340647979846       -0.27864410697005
H           -7.90738210561000       -3.85778312046799       -0.80339012978484
H           -7.00499057864253       -2.66661943491158       -1.76099179929978
O           -7.66795493443483       -1.86381511685509        2.45206775466021
O           -9.07653658472401       -3.34050709237133        1.56369131698816
