42
 energy: -62.486133497258 gnorm: 0.000481958903 xtb: 6.7.1 (edcfbbe)
N           -1.39064066722591       -0.07901258181751        0.62474996506510
H           -0.60720836185107       -0.58234297800035        1.02731640181729
H           -2.08526338430422        0.06615140695309        1.34999177163151
H           -2.83605563745424       -0.19246540534367       -2.65467699521630
C           -1.98762402363090       -0.85022523254679       -0.44844848918765
H           -1.32421164862624       -0.76291358130281       -1.32305498088186
C           -2.18625281320277       -2.34181294587478       -0.12227212483425
C           -3.34040082291881       -0.25705377508800       -0.77424808721947
H           -2.84129768866089       -2.43755695136504        0.74039451932026
H           -2.63623559798167       -2.86756198406306       -0.96171502808166
H           -1.22723643508051       -2.80408678522690        0.10257608406361
O           -3.61787140364883       -0.05316424506999       -2.10593332754499
N           -4.13105572336828       -0.03722756488504        0.16801080072428
H           -5.37471386399893       -0.61667292993778       -2.06219949318770
C           -5.45766345694778        0.52745129081507        0.09946783379684
H           -5.74807843470806        0.68644696825853        1.14189331773158
C           -5.49930486670051        1.86910351591594       -0.65729507962149
C           -6.46533808576697       -0.42881927772291       -0.50098889650249
H           -4.72705999269271        2.51398102924152       -0.23119807737656
H           -5.24398726003879        1.69609514384630       -1.70569627354509
C           -6.85660783834483        2.57727423336411       -0.58769487783053
O           -6.20710981073403       -0.96558749083418       -1.70281292966431
H           -7.63381985392090        1.88358730639404       -0.92588663572977
C           -7.19360804241909        3.02755390799478        0.83115170544556
C           -6.84228278314521        3.78325207566084       -1.52635948635196
H           -6.41599036187858        3.68509144124204        1.21446113815406
H           -8.13530908374235        3.57059880758023        0.83498398863684
H           -7.29476491152419        2.17870002122591        1.50112339483496
H           -6.63929352337066        3.47740704207003       -2.55045086392092
H           -7.80409514818417        4.28938430654468       -1.50670025528649
H           -6.07529094773321        4.49191610969431       -1.22050113208116
N           -7.52916158972436       -0.64552347339005        0.14105949474553
H           -8.74782136217345       -0.06088143532964        1.35784996183448
C           -8.57124415905597       -1.49639092143889       -0.38785126327489
H           -8.68918121850089       -1.37945132389829       -1.47304645653907
C           -8.29617270576168       -2.97138844225768       -0.07624218556311
C           -9.88372740078805       -1.09168191437077        0.29912113267033
H           -8.13121857742022       -3.09985447182066        0.99156675431133
H           -9.15148745129735       -3.56804834326134       -0.38042021009098
H           -7.41185275331526       -3.30448635887524       -0.61399954219581
O           -9.71312669316571       -0.25414296252573        1.31522359757613
O          -10.95552487964240       -1.50766669544279       -0.04231407273848
