42
 energy: -62.486133518066 gnorm: 0.000479357373 xtb: 6.7.1 (edcfbbe)
N           -0.79632473498685       -0.13387606629039       -1.08852555588939
H           -0.08226996927271       -0.66439991465237       -1.57177522259959
H           -0.40575796654951        0.17105931164996       -0.20112467204895
H           -1.99316957059600        1.28108258489008       -1.40361368060588
C           -1.99116820220038       -0.94236990677700       -0.85546080955088
H           -2.20021156202253       -1.49274009997498       -1.78178382455220
C           -1.85968151462699       -1.93077593558962        0.30250359881806
C           -3.15998550390921        0.02636758884034       -0.65104570724929
H           -1.66617342798091       -1.39499289921478        1.22969243409061
H           -2.77705142509988       -2.49702880190154        0.42175511468702
H           -1.03967948316308       -2.62158395558031        0.11591420437468
O           -2.91879576481734        1.27033203687897       -1.07691611951794
N           -4.20304209157233       -0.42084148280197       -0.11219843420587
H           -5.06797565039156       -1.95599440205877       -0.49116383928941
C           -5.47769561153204        0.22735974011273        0.10939733529089
H           -5.57306374441507        0.34318005339399        1.19749806782704
C           -5.63621728338097        1.60027143173018       -0.56233524365788
C           -6.52213368005772       -0.80331905133076       -0.31519383363748
H           -4.83743993837849        2.23584041282970       -0.17572774175508
H           -5.46760788543900        1.47445138277575       -1.63413549980547
C           -6.96856503095136        2.32751896939331       -0.36019505298292
O           -6.04088017420343       -2.01950551027303       -0.60860814401658
H           -7.73817902011193        1.80515013445881       -0.93114636050652
C           -7.38496989600650        2.38073388743531        1.10689909274538
C           -6.84557002427208        3.74486886604061       -0.91948140901964
H           -6.60337681479866        2.84218754525617        1.70783014487364
H           -8.29125908449563        2.97170771207553        1.21619175798743
H           -7.58013694012502        1.38319880835182        1.49114183522585
H           -6.53441149591332        3.72198065737643       -1.96114782167814
H           -7.80190747745788        4.25841982236306       -0.85946075028898
H           -6.11194890365644        4.31743071676085       -0.35524761313558
N           -7.74750276405485       -0.50885111728305       -0.36364840335560
H           -9.20525267765324        0.63502563674970       -0.12219818588972
C           -8.72742984249086       -1.50134022837878       -0.75464735052530
H           -8.42407288154985       -2.03627466068663       -1.66281541172833
C           -8.98102293650682       -2.52492271636604        0.36004054214816
C          -10.05003337999147       -0.77218709212496       -1.01640677938586
H           -9.25929112236079       -2.01225721530126        1.27915469931022
H           -9.78954070415600       -3.18710455808350        0.06316686984214
H           -8.08182812900117       -3.10907559890060        0.53674442650207
O          -10.09364738680430        0.45115009559878       -0.50048999063987
O          -10.96991956459116       -1.27190201836989       -1.60250164170818
