42
 energy: -62.486133500620 gnorm: 0.000481756608 xtb: 6.7.1 (edcfbbe)
N           -1.34728459927866       -1.48452421039158        0.40592208090357
H           -0.44943946910079       -1.01806104390824        0.38856441334389
H           -1.18766120890153       -2.48108799236742        0.32613634395026
H           -2.65694308863343       -0.92144270523445        1.58764989056032
C           -2.23661566882995       -1.00524253423240       -0.65810896710129
H           -1.73557765157501       -0.28285389405270       -1.31008079369134
C           -2.78518132954048       -2.14560319558297       -1.51270005377208
C           -3.40932716787940       -0.29312605299647        0.00594860757512
H           -3.27273988645829       -2.88464844892941       -0.88035296841643
H           -3.51978285217918       -1.74659777668769       -2.20441111280970
H           -1.98417874407200       -2.62666071490537       -2.07086098718469
O           -3.47202275925671       -0.42477296905736        1.34412795731454
N           -4.23421688088183        0.32891741721938       -0.70840102326781
H           -6.60068930027728        0.52161856091372        1.97612194327612
C           -5.37752421382450        0.96355730696415       -0.09017456714246
H           -5.09897698401016        1.40404664361647        0.88048399208778
C           -5.89073933724121        2.04286921273601       -1.05346972873747
C           -6.45454975551615       -0.07424883917020        0.12539405084203
H           -5.08400292341283        2.75700837932755       -1.22562304636425
H           -6.09937497499728        1.53348401272017       -1.99399902217451
C           -7.14509800494281        2.77928760094471       -0.57296870210994
O           -7.05271585379070       -0.08120564408385        1.37332555904672
H           -7.89783327944390        2.04180452598306       -0.27206497620401
C           -6.84842502589683        3.69686631161388        0.61239187724549
C           -7.72640776423867        3.59724264655807       -1.72440933521101
H           -6.11852313798342        4.45199433143639        0.32866409242046
H           -7.75599319340229        4.20250697217925        0.93410007390355
H           -6.45335210328136        3.14621597962792        1.46320375133069
H           -7.99704298056620        2.94812177355484       -2.55295396876215
H           -8.61749485965770        4.13059167343180       -1.40171879987468
H           -6.99856879731472        4.32428009861483       -2.07818297711710
N           -6.74504416028947       -0.85993525406900       -0.80046795653786
H           -8.73397301789934       -0.39015893239420        0.78338584443532
C           -7.70994804563140       -1.92709386892005       -0.77212365182533
H           -7.56367873648437       -2.47296106163434       -1.71158651580014
C           -7.54452042592750       -2.89970571838929        0.40425226599300
C           -9.15884797026327       -1.41632884305683       -0.78610439648814
H           -7.74161015191768       -2.41194414000945        1.35646361770691
H           -8.23189031064638       -3.73351552920190        0.28484698568996
H           -6.52515234669780       -3.27932391348990        0.41528070623874
O           -9.48616594858424       -0.56712951434336        0.18770930477235
O           -9.95707634326177       -1.77426629746345       -1.60427460257377
