42
 energy: -62.486133514618 gnorm: 0.000479454090 xtb: 6.7.1 (edcfbbe)
N           -2.02377349324026        0.00756492369134        0.59853747976987
H           -1.26514457974138       -0.35174009639662        1.16886614346004
H           -2.55556957097159        0.66947675749658        1.15411059062654
H           -4.15399309832255       -1.66421580081425       -1.82180187265881
C           -2.90635089930061       -1.07506462476771        0.20150694688857
H           -2.40783755771638       -1.61947477862315       -0.61588562905492
C           -3.23349061032946       -2.06517947870871        1.33334900207709
C           -4.20362338023680       -0.48302115515859       -0.30119579542267
H           -3.71513796019918       -1.53425269347940        2.15051433105803
H           -3.90012623281591       -2.85124766683053        0.98834592975543
H           -2.31736779557068       -2.52534044284152        1.69873049845184
O           -4.71448136431413       -0.96900573628246       -1.45518150874505
N           -4.74926084748918        0.42063113785519        0.38224832773693
H           -8.07323623091247        1.18701202011241       -1.33106450818415
C           -6.00121509277028        1.01652053051455       -0.01994541823459
H           -6.31158697866370        1.63088444074404        0.83755434365561
C           -5.82226010326231        1.92421345857710       -1.25617787688919
C           -7.08215785707943       -0.02961599878094       -0.22083838298206
H           -4.75901013421915        2.15930581291901       -1.33749936374854
H           -6.08872178228387        1.36379867102389       -2.15676839925199
C           -6.60513269472070        3.24454098326726       -1.18352703458007
O           -8.15930239690216        0.29901982531432       -0.96163976566549
H           -7.60889869032089        3.06691958903119       -0.77338767480677
C           -5.89562326973686        4.23537645268034       -0.26293898555303
C           -6.75663705644453        3.84238220355897       -2.58153322062393
H           -4.92414118608447        4.49952069670901       -0.67432004393825
H           -6.48286719186551        5.14445874839150       -0.15560378794400
H           -5.74119285693804        3.80816467227030        0.72470689724733
H           -7.31024601913340        3.17458078220972       -3.23928287297640
H           -7.28750657321880        4.79026720466554       -2.53414530272895
H           -5.77795203663310        4.02031261939478       -3.02120643238828
N           -6.96087264781099       -1.14721982003940        0.34438122894842
H           -6.18133626651181       -2.10079141428835        1.63370582977548
C           -7.94850530689292       -2.19330223913077        0.22685976307727
H           -8.96433089250536       -1.81377147823608        0.39814430196616
C           -7.90329498492981       -2.87866108539511       -1.14247119868516
C           -7.62498152656240       -3.23364331696307        1.31117941243157
H           -6.88914937265091       -3.20994423313997       -1.35606631047319
H           -8.56550099830901       -3.73966332745822       -1.13265738869829
H           -8.21857354458419       -2.18490432251062       -1.91714690034341
O           -6.51762283643033       -2.95993342602890        1.99064373604519
O           -8.29817733418763       -4.20698395224952        1.50783569523610
