42
 energy: -62.486133517718 gnorm: 0.000479202948 xtb: 6.7.1 (edcfbbe)
N           -0.90787557354045       -0.37906102854066        0.50576590873381
H            0.02178051566486       -0.58694965951597        0.16229849869538
H           -1.05510399355742       -0.93323613744551        1.34529168154952
H           -2.03755144209254        1.13394400441091        0.89752431055252
C           -1.92392082021085       -0.71247032720116       -0.49156687487998
H           -1.58734357508920       -0.29471620346195       -1.45006141938947
C           -2.18568380908179       -2.20832338708507       -0.65696187493882
C           -3.18792837056291        0.04233782811574       -0.10423040791991
H           -2.54381498703816       -2.63148861496204        0.27941310975009
H           -2.94440054965813       -2.37013619921113       -1.41536660247251
H           -1.27186706885717       -2.72056182287115       -0.95202418211992
O           -2.98924617009564        1.11872916710963        0.66901082335715
N           -4.30940371097410       -0.36295279087998       -0.50695709821962
H           -5.48031172433052       -1.09263231178073       -1.98776287319013
C           -5.52859751949529        0.35601324362647       -0.19410651993435
H           -5.60997132076322        0.54564984595382        0.88042778189453
C           -5.60068001324434        1.69271549791369       -0.95790951029796
C           -6.65639874570049       -0.54123617548496       -0.64624406129183
H           -4.76820883622761        2.31484872711889       -0.62488944174719
H           -5.46095770973223        1.48404453095609       -2.02291758935438
C           -6.91572259150513        2.45399623574757       -0.76298695197763
O           -6.42591211990850       -1.20722568993697       -1.78670161217641
H           -7.74736375090385        1.79718043382106       -1.03806511268753
C           -7.10449678101746        2.89463694416922        0.68590945212938
C           -6.93539320178991        3.67123270775485       -1.68667719221517
H           -6.26557175563608        3.50874741748744        1.00702670044584
H           -8.01622303641023        3.47879295326360        0.78256438205157
H           -7.18327336944795        2.03745564662126        1.34835510740973
H           -6.83219364358331        3.37097701124036       -2.72714790988409
H           -7.87259847795621        4.21152897853093       -1.57946740416365
H           -6.11919758225852        4.34758716011576       -1.44077971225769
N           -7.69765021790017       -0.65236471878329        0.05454329645365
H           -8.82239395313725        0.11127708901185        1.24336460260778
C           -8.80485711438667       -1.48762131964471       -0.35867201076759
H           -8.98348876600915       -1.42621818777034       -1.43987571798618
C           -8.57549142458930       -2.95412850095850        0.02038330049190
C          -10.05589818877958       -0.98070886763375        0.37478694127075
H           -8.35449141989463       -3.03255184888076        1.08282573421438
H           -9.47290426597526       -3.52505031695689       -0.20059016088097
H           -7.73978622961377       -3.35634489720855       -0.54674514245224
O           -9.79484799439082       -0.05090236994606        1.28569182915502
O          -11.15894995066908       -1.39683989421642        0.15245892445809
