42
 energy: -62.486133517411 gnorm: 0.000479475539 xtb: 6.7.1 (edcfbbe)
N           -1.39543898786541       -0.79250064002931        0.04137355263937
H           -0.78020962317014       -1.57600101140570       -0.13969258089671
H           -1.07966721378577       -0.34882994314029        0.89987468361007
H           -2.11868947067223        0.68803419981508       -0.82729348515749
C           -2.78170647559382       -1.23725572330175        0.19699504047289
H           -2.98162033541621       -1.97978616004570       -0.58438763375231
C           -3.09205171833650       -1.84725538127231        1.56147490965199
C           -3.68628720968507       -0.03999089155216       -0.10449206690120
H           -2.84236368518488       -1.14052311805943        2.35096050773390
H           -4.14906172705056       -2.07731035936343        1.62670932532517
H           -2.51723102871956       -2.75895707710076        1.70852816527701
O           -3.05449095221778        0.97131690515126       -0.73478126309075
N           -4.88683088304858       -0.11633609537594        0.23930708627365
H           -8.29921200017937        1.58265406634825       -0.14818170833964
C           -5.95694352915813        0.82833918882639        0.05350192938457
H           -6.01506879700940        1.43614062019253        0.96764589293578
C           -5.78652154274674        1.74692069804224       -1.18043718599223
C           -7.22192088214487       -0.00909221546598       -0.02333009875913
H           -4.77342242377108        2.14482736493604       -1.13140798223428
H           -5.84490374061453        1.11408276244211       -2.07006234597397
C           -6.73186037331393        2.94459774633801       -1.35604328560682
O           -8.40915268467409        0.62452558311566       -0.15831402913150
H           -7.73825890171111        2.60499155244340       -1.62911767780595
C           -6.80655007941157        3.81942799115068       -0.10431944026103
C           -6.22432907820847        3.78391218918733       -2.53093786720055
H           -5.80722831754627        4.13503078559284        0.18809681048192
H           -7.39857612516408        4.70994047383874       -0.30540629181614
H           -7.25993835910297        3.30485460938286        0.74181328133000
H           -6.15478892781452        3.17896293882578       -3.43179576935523
H           -6.89988340005521        4.61366764734264       -2.72675578012606
H           -5.23830307290802        4.18711482913251       -2.31185157128987
N           -7.13763572938780       -1.25021845845099        0.14413127240478
H           -6.10118424128528       -2.59681048429514        0.56675301032827
C           -8.26357747998733       -2.14672915584592        0.15456473306271
H           -9.05901472087621       -1.79774338258660        0.82599850773670
C           -8.85482174581597       -2.35974934945520       -1.24273077797651
C           -7.72719948202379       -3.49336474650140        0.67541743285817
H           -8.06808220859577       -2.65096611061394       -1.93581253820944
H           -9.60105632704787       -3.14801019753202       -1.19950063477951
H           -9.31713522240452       -1.44124309257885       -1.59512902223849
O           -6.40925224007618       -3.50924434322132        0.81439071883100
O           -8.43472039983297       -4.43344967957913        0.91317884257971
