42
 energy: -62.486133503684 gnorm: 0.000481345294 xtb: 6.7.1 (edcfbbe)
N           -0.91950977712034       -0.37570620296543       -0.62628119493792
H           -0.20918509833645       -0.86396717633157       -1.15750503305522
H           -0.65142034722843       -0.41523927130066        0.35320775170231
H           -1.89081971154774        1.27433345990482       -0.67421553401727
C           -2.23124916850360       -0.99581414651364       -0.80862053588049
H           -2.35825992827599       -1.18330183713397       -1.88226036514173
C           -2.43159560862917       -2.30298330484914       -0.04553436634544
C           -3.28387056008883        0.04178753008083       -0.43060921348891
H           -2.26920708527279       -2.14421625631505        1.01905452914840
H           -3.44946784276794       -2.64785057138632       -0.19113053903237
H           -1.73744445098974       -3.06262111020422       -0.39940194266161
O           -2.84599924625190        1.31259946246730       -0.46050701662715
N           -4.43826572487951       -0.35084271557441       -0.13414278176207
H           -6.23827359981719       -0.91837508665401        1.99158509905880
C           -5.55075945217918        0.52226455025060        0.18800857652380
H           -5.39839335930540        0.92599015867155        1.20004280965916
C           -5.76319456160710        1.67822597824869       -0.79683628228070
C           -6.74438985218317       -0.40925442539558        0.18949519546611
H           -4.85806527170907        2.28468377787435       -0.82321482808270
H           -5.91993814098663        1.23463484327611       -1.78023141444326
C           -6.95932222746805        2.57256066862607       -0.45489421972528
O           -6.97436245334951       -1.06372884931894        1.38560118667905
H           -7.85513586483650        1.94831961252812       -0.38125274922182
C           -6.76217002712338        3.31571680994705        0.86522792340611
C           -7.16840433151632        3.57646907602651       -1.58713599514862
H           -5.82564220481616        3.87013409425843        0.85262870747861
H           -7.57548849615768        4.02046749894528        1.02255368017225
H           -6.74949778759393        2.63300890108110        1.71166868859570
H           -7.33901183640233        3.05845690981087       -2.52716239028175
H           -8.03009379929831        4.20765029926250       -1.38319758719672
H           -6.29291218034099        4.21353104750858       -1.69632827344426
N           -7.39369290291203       -0.60087371584589       -0.85896626670455
H           -8.78623036654823       -0.99082591994879        1.28245288823263
C           -8.48722618197485       -1.51615359858679       -1.05555514127956
H           -8.68760016989563       -1.49902668806384       -2.13320097483618
C           -8.19413218919822       -2.95938325202386       -0.62272366506423
C           -9.77727448989184       -1.04846731061076       -0.36456739962520
H           -8.06206456768574       -3.03449487820786        0.45433347568717
H           -9.01800344368199       -3.60167319919015       -0.92392145811660
H           -7.28204973108130       -3.29963592015780       -1.10774067223566
O           -9.68626363722459       -0.82424945775301        0.94615614500168
O          -10.81030358996559       -0.91417560921159       -0.95594373026913
