42
 energy: -62.486143125440 gnorm: 0.000732951398 xtb: 6.7.1 (edcfbbe)
N           -2.40984125613039       -1.12095667155045        1.94915598361201
H           -1.45095098081761       -1.44541474835231        1.98996639055569
H           -2.99706979555373       -1.86095895126653        2.32657900336149
H           -3.49638552298409        0.39729667688035        2.37973776253238
C           -2.80721267471886       -0.84119260662269        0.56898479537590
H           -2.02253224245391       -0.21320940163932        0.12557840538402
C           -3.01435199718743       -2.08024132130715       -0.29988690372640
C           -4.06309043033390        0.01503968758580        0.63571324516232
H           -3.68768355778605       -2.77683888631561        0.19455507570956
H           -3.45715036386815       -1.78384835416632       -1.24425534280127
H           -2.06471101482660       -2.57883829160718       -0.48345906046347
O           -4.21491786265498        0.69769897234439        1.78626133281948
N           -4.85166955784292        0.04857948444909       -0.34207740595177
H           -8.31332270108384        1.35728307103193       -1.11973951247975
C           -6.04312272764449        0.86292675629684       -0.30835308225615
H           -6.14989593272334        1.37962383390857        0.65928574124226
C           -5.98446037442307        1.90106299064630       -1.44691541571197
C           -7.22866356163952       -0.07139104258799       -0.43240284625581
H           -4.94111278945940        1.99183371915984       -1.75422588041937
H           -6.53069374054419        1.52425024433082       -2.31618513578135
C           -6.50479770484638        3.28886256045969       -1.04465295262123
O           -8.39945289543790        0.42467176497080       -0.88340020646032
H           -7.43403539152754        3.18339721657471       -0.46793077398180
C           -5.48334412453830        4.00785425300826       -0.16578187995150
C           -6.80507374348780        4.12095538956078       -2.29030519789342
H           -4.57514577386420        4.20318238487221       -0.73191275689891
H           -5.88135761559784        4.95747478657543        0.18437150002533
H           -5.22074049781191        3.40623052395616        0.70100131122463
H           -7.57829128415299        3.65529465858352       -2.89870749071901
H           -7.14507160777151        5.11509071411130       -2.00973577612877
H           -5.90897221700567        4.22463650874993       -2.89790193695646
N           -7.07776483293044       -1.25684716344012       -0.04558265304819
H           -5.97109727573457       -2.41809772459279        0.61650459856443
C           -8.09987916038455       -2.27112744417107       -0.04450882251928
H           -8.99774322494525       -1.94138899173129        0.49364020349078
C           -8.50040808678161       -2.71339888892281       -1.45527087622942
C           -7.49146192766447       -3.47636431095186        0.69716962343539
H           -7.61259711801791       -2.98650349607147       -2.02223939446069
H           -9.15900889373667       -3.57472090096758       -1.38619687612845
H           -9.01398587781165       -1.90404496409681       -1.96756200847761
O           -6.19803551713655       -3.32483932023832        0.95686975780599
O           -8.11908743916671       -4.45504887573717        0.99275119765794
