42
 energy: -62.486133521100 gnorm: 0.000479024188 xtb: 6.7.1 (edcfbbe)
N           -0.85119559791151       -0.33845422110892        0.49054638156661
H            0.09110965436239       -0.47341503061177        0.14510759487657
H           -0.99005137465650       -0.98531054042264        1.26222648213953
H           -2.04762166892707        1.09094299688687        1.01386040903772
C           -1.83731915359954       -0.59641943968682       -0.55739589923372
H           -1.50717554277471       -0.05381029439405       -1.45343919612020
C           -2.02677979852924       -2.07241865728141       -0.90408164779817
C           -3.13724308449445        0.05316757573401       -0.10638803758642
H           -2.41849893810740       -2.61349690492215       -0.04527618402004
H           -2.72864906186467       -2.17468505578845       -1.72496586758530
H           -1.07600249298340       -2.51362020761010       -1.19719554765572
O           -2.99525962934156        1.05383982706954        0.77247662142435
N           -4.23785074627506       -0.34948094409426       -0.56648479676590
H           -5.25436619777554       -1.56009125359024       -1.53319310404918
C           -5.48766897479592        0.27117811505981       -0.17579633922379
H           -5.51395177362305        0.47658694135322        0.89904043858247
C           -5.66288565951239        1.59456827544394       -0.94911174370048
C           -6.57882299046535       -0.71311260915227       -0.54164942995139
H           -4.81941223895561        2.23567389759481       -0.68356566542734
H           -5.59142980252096        1.36941055948567       -2.01686894560317
C           -6.96862729010279        2.34534891341042       -0.67939011806683
O           -6.21739166016208       -1.67751642487152       -1.39475488034522
H           -7.80730796739000        1.69550539858110       -0.94359716242454
C           -7.10190487296890        2.74561245320155        0.78726748315011
C           -7.02401536303851        3.58778490924378       -1.56762591956853
H           -6.25758721409931        3.36166342528870        1.09036952301587
H           -8.01543687488109        3.31552333064569        0.93669081765524
H           -7.14136424058905        1.87001486493416        1.42897939537203
H           -6.95704766253919        3.31604194381511       -2.61864410131554
H           -7.95878355790697        4.12022018505199       -1.41195236849771
H           -6.20197716557346        4.26126590564759       -1.33318128383364
N           -7.73929630556112       -0.56931176695231       -0.06788434639385
H           -8.99123162388921        0.47543538244741        0.73788190963088
C           -8.81722944112162       -1.46225750929414       -0.43461884274300
H           -8.82447975755795       -1.66946154311308       -1.51258997196824
C           -8.73830066691662       -2.79362771849258        0.32036636311398
C          -10.13337371415013       -0.76656745496990       -0.05832780458423
H           -8.68058605166804       -2.60994896133059        1.39144804340465
H           -9.62751485536941       -3.37988201358950        0.10654317573482
H           -7.85577454686024       -3.34497194696721        0.00591900854339
O           -9.96455888696264        0.34233705851405        0.65195401451729
O          -11.21132646805928       -1.19628732575814       -0.36376346732606
