42
 energy: -62.486133525399 gnorm: 0.000478284617 xtb: 6.7.1 (edcfbbe)
N           -1.65788392424827       -1.94823157782467        0.89150128696059
H           -0.65877143126376       -2.07865118883168        0.98966694810981
H           -2.04237984853477       -2.80589288910513        0.50458502157381
H           -3.18574458630722       -1.35538410640283        1.90807395376801
C           -1.96050394931362       -0.82202447430985        0.01140583763724
H           -1.30990043798496        0.01095877635201        0.30552073864553
C           -1.76951622990392       -1.10386945668834       -1.47866034775554
C           -3.38609200972375       -0.38474409366073        0.31475118864468
H           -2.36744031956562       -1.96296833163367       -1.77981804312846
H           -2.08607423686119       -0.23863233218860       -2.05190766147145
H           -0.72414688067741       -1.31400319413478       -1.69459498848068
O           -3.87565469109073       -0.80083217613852        1.48963610380297
N           -4.00540021808043        0.34944347684726       -0.50360345973436
H           -4.97449397185661       -1.13916264036425       -1.58779489541594
C           -5.37008416759580        0.74940686092969       -0.21192622967119
H           -5.47434277260398        1.06809595659052        0.83080775865708
C           -5.71665739754922        1.90622646566328       -1.16471424551359
C           -6.29751514398581       -0.42455411199479       -0.43687893119203
H           -4.96792644101869        2.68502358205762       -1.00814914248059
H           -5.60042475208054        1.54218201097383       -2.18834331910220
C           -7.11715516401730        2.49939303827867       -0.99437286082641
O           -5.85263697310799       -1.39416525157323       -1.25969705170375
H           -7.85367585563870        1.69991549075526       -1.11714949297563
C           -7.30714062720433        3.12783076079459        0.38366459890550
C           -7.35767835830449        3.54680493340078       -2.08091160028344
H           -6.57720207077697        3.91894664155622        0.54355167279498
H           -8.30238419886222        3.55790075791911        0.46323326656000
H           -7.19607032871474        2.38791936333316        1.17114375376761
H           -7.25601848449561        3.10859354079072       -3.07106721285518
H           -8.35918175950775        3.96001502415452       -1.99185910461847
H           -6.64108109227100        4.36065204741005       -1.99024426127239
N           -7.44847693884105       -0.41314341871397        0.07318754234050
H           -8.81433924780462        0.51653356411887        0.84598536923772
C           -8.39694924931063       -1.47720731122154       -0.16560381399408
H           -8.39900273734740       -1.79768824297436       -1.21564913263201
C           -8.11159155959090       -2.69378482102481        0.72169211787956
C           -9.78896398875828       -0.93399055711556        0.18905062856192
H           -8.05536320296468       -2.38659289552247        1.76402234011963
H           -8.91159589400493       -3.41944863883694        0.60484722928144
H           -7.16577790282587       -3.14662056899981        0.43485253222050
O           -9.76041569122458        0.24366951558754        0.80034815635600
O          -10.80253652231216       -1.52994535022269       -0.04964717737546
