42
 energy: -62.486133510053 gnorm: 0.000480500872 xtb: 6.7.1 (edcfbbe)
N           -1.89594281559573       -1.76842997432708       -0.18339151628879
H           -1.27025831408983       -2.50917790535251        0.10736226271868
H           -1.32769519798357       -1.01273742106989       -0.55603255296313
H           -3.48414261327969       -1.52506128451265       -1.21801210991117
C           -2.69798234410683       -1.28312760458538        0.93688209470753
H           -3.07477185337890       -2.16166702667507        1.47585670984912
C           -1.94869344709544       -0.37717301925775        1.91214388816225
C           -3.91688412820408       -0.58192181983929        0.34784384408150
H           -1.54118464646073        0.48305476192076        1.38474182446424
H           -2.63563228427097       -0.01869260360658        2.67086384082777
H           -1.13430280590563       -0.91981739961600        2.38790248351431
O           -4.18689281572603       -0.90721149741142       -0.92384781381567
N           -4.58918082761247        0.18795938510901        1.08307328063563
H           -6.97454857925609       -0.06727419208688        2.49797729615362
C           -5.78879256253229        0.86819309411733        0.61843069374825
H           -6.02505695569233        1.58850754482455        1.41524638221953
C           -5.64825831412774        1.61337665397196       -0.71032491037684
C           -6.86907587609218       -0.18931632942632        0.58710130428823
H           -4.74541622939686        2.22646692324036       -0.66439543702149
H           -5.52665104626899        0.87866777551755       -1.50352835733872
C           -6.86155852801450        2.49614647433448       -1.02395030165604
O           -7.41285857892637       -0.53494096988578        1.77638991558757
H           -7.76807291372655        1.93134453071282       -0.78302632584319
C           -6.84896915286461        3.78676886745265       -0.20753942588053
C           -6.88438635614934        2.82495459934660       -2.51526603955842
H           -5.96695523692559        4.37674969149998       -0.44892359902732
H           -7.73030657100325        4.38395519203855       -0.43032427184675
H           -6.84222190923641        3.58324748707693        0.86049016354059
H           -6.95777799752774        1.91483923709147       -3.10509575891503
H           -7.73556110647920        3.45850311535711       -2.75400798922166
H           -5.97532858237742        3.34978869295066       -2.80160852314661
N           -7.15734163427168       -0.74906842683329       -0.50013828056060
H           -6.19297466327025       -1.52555724563966       -1.86991587523316
C           -8.09584156610389       -1.83609203914801       -0.60385344423464
H           -8.20501586867433       -2.39602867126724        0.33527160089188
C           -9.46936937011949       -1.31900663846606       -1.04153315219780
C           -7.56373033307554       -2.79769143703049       -1.67909393734552
H           -9.36449362947095       -0.70448325229873       -1.93303075661140
H          -10.11602681929954       -2.16348669183354       -1.26252745400301
H           -9.91241317917733       -0.72056420227380       -0.24900749430798
O           -6.45436929769826       -2.38477125224672       -2.27817305157960
O           -8.10925432574687       -3.83125095595974       -1.95209418412931
