42
 energy: -62.486133510512 gnorm: 0.000479620744 xtb: 6.7.1 (edcfbbe)
N           -1.45222268442669       -0.69912327223399        0.95394125423690
H           -0.54232692711540       -1.08970829094591        0.74114924842939
H           -1.78505754695814       -1.14804285004759        1.80316533025906
H           -2.36058856812050        0.99278154234053        1.12166611570606
C           -2.39622419993619       -0.94909578794536       -0.13526002450237
H           -1.89323489574509       -0.67399701904509       -1.07151203374881
C           -2.89383284961793       -2.38916214427962       -0.23251723306087
C           -3.55326963400604        0.02165806315052        0.04682609317710
H           -3.36759452826470       -2.68339822370565        0.70155739599129
H           -3.63175791149308       -2.46141691800482       -1.02380050600477
H           -2.06764536703656       -3.06573336182951       -0.44202044996681
O           -3.26849728077211        1.11419517824467        0.77708051952698
N           -4.66878664920942       -0.23297206252142       -0.47299377440012
H           -7.04457343953612        0.48359751631258       -2.43457850074365
C           -5.78288635530344        0.68617975032011       -0.32024824242438
H           -5.85140537555555        1.00557381887856        0.72770894562020
C           -5.61132203113174        1.92313170904415       -1.21075371187824
C           -7.00990087877427       -0.14838493987945       -0.62931277448614
H           -4.69049645323303        2.41942906473722       -0.89806046574066
H           -5.45717401364197        1.60556073078435       -2.24867821115965
C           -6.76962377789951        2.92676432676000       -1.12640543502907
O           -7.54361952125214       -0.11397734132403       -1.86393597342444
H           -7.72267285403562        2.40450603581958       -1.26913223695048
C           -6.80750682380703        3.61485635800333        0.23611205440015
C           -6.62099253297501        3.96956852902307       -2.23417900274980
H           -5.86085988028979        4.11173983878083        0.43661317410910
H           -7.59874179448767        4.36061168093181        0.25745984530151
H           -6.99792393727452        2.89943709221681        1.03156171427264
H           -6.63776096307288        3.50388730256621       -3.21787324819620
H           -7.43229826698900        4.69181158400794       -2.18728921993187
H           -5.67996920492958        4.50434151899386       -2.12443091201039
N           -7.43122595488260       -0.91550305823999        0.27616656668346
H           -7.38587558879694       -1.45639217617839        1.97935872486775
C           -8.53035654032331       -1.83190661401713        0.07401316263771
H           -9.40614241159215       -1.32467045858163       -0.35017701843232
C           -8.15011652294568       -3.00573166528286       -0.83522947248916
C           -8.90601446306220       -2.38984491154026        1.45624286526953
H           -7.23825756501083       -3.47371855353386       -0.46992423988203
H           -8.95469061363821       -3.73579059250489       -0.83033029843461
H           -7.98496981624213       -2.65328478800814       -1.84957881110685
O           -8.05411967350141       -2.04183129642537        2.41265414845486
O           -9.86365495854992       -3.08797114043781        1.64387975168891
