42
 energy: -62.486133513462 gnorm: 0.000479543357 xtb: 6.7.1 (edcfbbe)
N           -2.12392739195732       -2.42038575170395       -0.79358311093636
H           -1.16248684419896       -2.73833351900393       -0.77550416827985
H           -2.44720599120367       -2.47415209867186       -1.75579817893624
H           -3.79599265281945       -2.66321496103240        0.08164552444346
C           -2.22937663232989       -1.04217530683316       -0.31712763353242
H           -1.66682465014384       -0.97913272837786        0.62327903956308
C           -1.70163958762846        0.00761591041485       -1.29188924996557
C           -3.70038934844215       -0.79532064984145        0.02369372198740
H           -2.23320988260872       -0.06343347490900       -2.23856106166053
H           -1.86988595667453        0.99615135355743       -0.87950078015695
H           -0.63738695640668       -0.13582843120099       -1.46915464828450
O           -4.38899216075887       -1.91311797284155        0.29586821047639
N           -4.08771798655654        0.39437353658809        0.10555501506043
H           -6.86758850767637        0.86875638250069        2.26012741680479
C           -5.41359463664330        0.90986389627012        0.29322361147823
H           -5.32885418093678        1.61942497811668        1.12989417024393
C           -5.76549877177631        1.69150204525470       -0.98988162080265
C           -6.53492131131606       -0.06489179610817        0.57421914487615
H           -4.91881804310562        2.33449120306374       -1.23336654095323
H           -5.87642367669751        0.95082597393182       -1.78274115325311
C           -7.04636614486341        2.52571557662395       -0.88934781955252
O           -7.25106265779102        0.15024587285176        1.74350378233240
H           -7.85282652492256        1.89513987123784       -0.49831982416099
C           -6.87007660323515        3.73323423171672        0.02961703766609
C           -7.45329200731142        2.99506744395609       -2.28484557367357
H           -6.07681676001796        4.37699085383016       -0.34445140902684
H           -7.79021849177297        4.31159935564333        0.07075367458967
H           -6.61661284204367        3.43686385029266        1.04494617363631
H           -7.64427625538089        2.14329811607344       -2.93251304291375
H           -8.35785644343987        3.59650889327325       -2.23586809534340
H           -6.66254497810340        3.59686888879356       -2.72782519537095
N           -6.76416867960074       -0.99052282067599       -0.23098649992594
H           -8.87520613541456       -0.23904399641415        1.05023273080827
C           -7.76105868856697       -2.02147854646231       -0.12477042692535
H           -7.53911214428592       -2.72234315859526       -0.93781353856108
C           -7.74510961402041       -2.77994650657189        1.20900408005179
C           -9.17726760123310       -1.48649478815159       -0.37949583660736
H           -8.05712111561645       -2.14412787924927        2.03481697241497
H           -8.41350988969164       -3.63523408655237        1.14888455683091
H           -6.73287772868119       -3.12683512666729        1.40261663148404
O           -9.56981084173261       -0.48624516050098        0.41032349487145
O           -9.89826392696126       -1.94430494945530       -1.21992442893220
