42
 energy: -62.486132294869 gnorm: 0.000621953288 xtb: 6.7.1 (edcfbbe)
N           -2.02086944035642       -1.84217578569667        1.23323214623033
H           -1.76704596260377       -1.23389907663702        2.00496890943683
H           -1.23478980418589       -2.45355251247231        1.04689124714624
H           -3.95758622623823       -1.94576835854300        1.44967303229962
C           -2.36198589389187       -1.05799075834892        0.04904014073974
H           -1.68183084037062       -0.21676171752956       -0.14392528999044
C           -2.39395964754993       -1.97051287015447       -1.17853634351152
C           -3.76081884950592       -0.50689228773136        0.26778945578182
H           -3.09389830569030       -2.78816189442172       -1.01890198278196
H           -2.70438146647296       -1.40202487781864       -2.05008170610415
H           -1.40681391027189       -2.38757591156210       -1.36603857847705
O           -4.52946996476295       -1.23892920899064        1.08485143359985
N           -4.09858637323860        0.55278463220887       -0.32021657690389
H           -5.72475752175804       -0.05849509228889       -2.31050636234017
C           -5.44732565838296        1.08687564779114       -0.22728500156719
H           -5.63757706990683        1.40913934493243        0.80293624466138
C           -5.55169390642002        2.28169095877625       -1.18331984790949
C           -6.45414689386518        0.00809997982055       -0.54712957810610
H           -4.89753529832264        3.06749138736621       -0.80307386980332
H           -5.15727948298139        1.98987513043618       -2.16113657212211
C           -6.97472291354882        2.82672419589625       -1.34858579384335
O           -6.41060096181244       -0.50421802110622       -1.79662300234818
H           -7.61494189091026        2.03328339668218       -1.75153486791024
C           -7.56290986739918        3.28314604018777       -0.01578387720067
C           -6.96049888851666        3.98579767944637       -2.34412852256541
H           -6.90305210105718        4.00252823296089        0.46445237236819
H           -8.52778920431172        3.75810893899804       -0.17710307650563
H           -7.71031367062372        2.43938324414797        0.65279613353514
H           -6.55794221158839        3.66965481589300       -3.30415692816215
H           -7.96772130020034        4.36242208743317       -2.50402625395587
H           -6.34604742822477        4.80000576583759       -1.96602554395767
N           -7.23537118148936       -0.40575387165878        0.34678211565660
H           -7.89065756446495       -0.31774206340907        2.02953384908137
C           -8.17732396098593       -1.47658627201607        0.11133067058732
H           -8.76206645011615       -1.30824988927694       -0.80163469003599
C           -7.48399680126912       -2.84025205233306        0.01280376329769
C           -9.12981542432781       -1.50926000342666        1.31551757158730
H           -6.85259697060691       -2.99289241295139        0.88558420982557
H           -8.23609801937866       -3.62308966334007       -0.02992519593143
H           -6.86849572553537       -2.87892874894064       -0.88220701193463
O           -8.71885522349655       -0.76072826260431        2.33144211481878
O          -10.13202096289510       -2.16859568207688        1.34119622851270
