42
 energy: -62.486133485310 gnorm: 0.000481706765 xtb: 6.7.1 (edcfbbe)
N           -2.21030657130089       -1.45281637358532       -0.79560299939794
H           -2.04533098357227       -0.89236317790650       -1.62543324909631
H           -2.11498433370484       -2.42931692600445       -1.05102730420003
H           -1.66642037460076       -0.35272434150713        0.71076117441894
C           -3.53374700302075       -1.18752106715267       -0.23336691211025
H           -4.33015573818693       -1.18175891796599       -0.98964893576866
C           -3.84213121014317       -2.24223932649785        0.83171972193431
C           -3.45086335091078        0.16039927735478        0.49344697766523
H           -3.07600736959616       -2.22396644831495        1.60403083194776
H           -4.80492102437767       -2.03637167419899        1.29120385888079
H           -3.86103087938904       -3.23603130932827        0.38737879764065
O           -2.24679722626956        0.36401942868381        1.04005674601334
N           -4.33626808574593        1.02031966440934        0.72573953936719
H           -6.13190655781671        0.58311203167107       -2.18117470629137
C           -5.64583232604096        1.20453702476775        0.17539444704087
H           -6.24093524434662        1.54390117436518        1.03402173425781
C           -5.55031901157473        2.36828823815905       -0.82731762454683
C           -6.38909310388299       -0.00797449129788       -0.36758945058593
H           -4.94402090664155        3.13719205755334       -0.34590228096603
H           -4.98741210024615        2.04784969905651       -1.71263718452393
C           -6.90026449748435        2.97578413008034       -1.23662791126699
O           -6.50723833885012       -0.17009883251939       -1.70618324395109
H           -7.60146467467231        2.17902644876925       -1.51248113813932
C           -7.51865933789769        3.76914080839811       -0.08802485359554
C           -6.70290267006493        3.88652891463284       -2.44859515531742
H           -6.84490815808592        4.56101673818896        0.23073553438885
H           -8.45474845809187        4.22155772111175       -0.40692312243844
H           -7.72748128638386        3.12968957488583        0.76540496576635
H           -6.30659706017555        3.33487512849747       -3.29944003004490
H           -7.64871549804727        4.33239696769812       -2.74607221807209
H           -6.00801203992753        4.68754112171609       -2.20676159539743
N           -6.90185741599428       -0.81049109640012        0.45732012769642
H           -7.27263218658811       -1.21393608678023        2.18528336975306
C           -7.72878075266594       -1.93159439740065        0.06617845844193
H           -8.59843531220971       -1.56175828185285       -0.49499343215036
C           -7.04425107121376       -3.00808627868005       -0.77993580621287
C           -8.25505956698055       -2.57402035344054        1.36238691482581
H           -6.17226088109238       -3.39782270678971       -0.26215809535918
H           -7.74888379555222       -3.82037692093171       -0.93528951951280
H           -6.74394917999200       -2.60278660602790       -1.74217607562404
O           -7.84047494371284       -1.96849888267589        2.46786814489051
O           -8.97014692185531       -3.53681458563978        1.36524629670881
