42
 energy: -62.486133514651 gnorm: 0.000479602394 xtb: 6.7.1 (edcfbbe)
N           -0.97329194436344       -0.88472087371731        0.16839952487452
H           -0.10363873267799       -1.09396857256318       -0.30687985497961
H           -1.15301459377545       -1.64457814887269        0.81960625340735
H           -1.87674962973665        0.54891911140894        1.08663634930926
C           -2.07779504344891       -0.78506214921420       -0.78684392578640
H           -1.73870198452508       -0.14551946247934       -1.61168614982550
C           -2.56078637792611       -2.11923895066385       -1.34993300465958
C           -3.21004847390337       -0.03887912878951       -0.09716645926568
H           -2.83517115567786       -2.79015725880229       -0.53786724401771
H           -3.44022168580999       -1.94728803094041       -1.96092379248262
H           -1.78253003300093       -2.58785132749281       -1.94894715580900
O           -2.83307538165889        0.70996460182682        0.96258298188682
N           -4.37913991951081       -0.14141145482565       -0.54111521068595
H           -6.63550532827234       -0.09451902196542        2.07317094268763
C           -5.47141214736481        0.59069310030861        0.05079859459915
H           -5.21097584240714        0.96083852341234        1.05616874144566
C           -5.81901817336365        1.77408738201673       -0.86754660031174
C           -6.65521776114663       -0.34343478387746        0.13696660557138
H           -4.93935366338937        2.41644783189143       -0.94479655010905
H           -6.02640693675367        1.34815629956461       -1.84925238705426
C           -7.02249499214162        2.59792569806355       -0.39902396967977
O           -7.16667736842754       -0.55117352890127        1.40903405145300
H           -7.85973946343345        1.91930171478779       -0.20123449708613
C           -6.71424801908636        3.38865817687068        0.87142758882941
C           -7.44334244763326        3.55310519226355       -1.51407273507854
H           -5.86903580304368        4.05348215246434        0.70607246000117
H           -7.57364997743918        3.99132372172650        1.15601262580540
H           -6.47453280011224        2.73473036557851        1.70659917330792
H           -7.71435976003969        2.99751445209011       -2.40799602652307
H           -8.30185595309598        4.14464968771535       -1.20503607597824
H           -6.62865848409594        4.23082028992399       -1.76092286249524
N           -7.10477215173099       -0.87222588906952       -0.89928613660284
H           -8.91277041760483       -0.53590885070448        0.91684544882652
C           -8.19717080994660       -1.80174028519708       -1.00867097554642
H           -8.18092992673914       -2.14689636839187       -2.04889382298433
C           -8.09595931513034       -3.01651950218575       -0.07587906786147
C           -9.56116556940911       -1.12701006792135       -0.79404250787481
H           -8.16643194965863       -2.72471252488528        0.96974130775034
H           -8.89729229535321       -3.71537635456770       -0.30257767158009
H           -7.13966542589582       -3.50970149566846       -0.23419687176715
O           -9.71451755779781       -0.48285510357753        0.36335679741711
O          -10.44486596178955       -1.19189489790921       -1.59969277025181
