42
 energy: -62.486132551227 gnorm: 0.000649001759 xtb: 6.7.1 (edcfbbe)
N           -2.14670086229908       -0.90377228244059       -1.64853150906411
H           -2.14683300002174       -0.06930103849409       -2.22636990544564
H           -2.11383576763607       -1.70740829577467       -2.26579064699295
H           -1.34612897892614       -0.34712451719027        0.01602928543313
C           -3.35119173824323       -0.94777406269468       -0.81418163285439
H           -4.27614603534838       -0.71647365026405       -1.35539196571813
C           -3.45895907900613       -2.33578260270123       -0.17875892425603
C           -3.14108805637361        0.06184769297765        0.31515839495616
H           -2.52691800907999       -2.58869723291730        0.32324759904263
H           -4.26197739975002       -2.35003195248025        0.55261777602529
H           -3.66151087880019       -3.08672205529984       -0.93997231700310
O           -1.85798205787932        0.15426702740588        0.68476969867145
N           -3.96459515841738        0.76824293649500        0.95121914966739
H           -6.77702777791562       -0.19668258323994        2.35531903982630
C           -5.37011305254994        0.97519226376132        0.77601830873992
H           -5.69363800570658        1.39528603553122        1.74115352468134
C           -5.58798639774985        2.04574452629449       -0.31391638368270
C           -6.26837972577520       -0.21107609815518        0.47618663191140
H           -4.84940364833133        2.83397649629956       -0.16040692082582
H           -5.39533752630008        1.57155864824985       -1.27673335951864
C           -6.99730424951747        2.64891549386717       -0.31641853870985
O           -7.02591427506671       -0.65462785658385        1.54196793787245
H           -7.73142019944956        1.83762505462615       -0.25474777410373
C           -7.20796027948452        3.59894346492931        0.86072547018436
C           -7.22870321366923        3.39389338370113       -1.62961172334955
H           -6.49671235336210        4.42050840517131        0.81175685902845
H           -8.21314460041944        4.01292639298164        0.83346617322462
H           -7.07906034555733        3.09437101174810        1.81517540427557
H           -7.15386568671897        2.71273763528502       -2.47352652711997
H           -8.21861861296818        3.84327019532007       -1.64154671634789
H           -6.49019702451041        4.18321526331270       -1.75273102510896
N           -6.32375652443647       -0.71154101685281       -0.66967645808741
H           -8.60151488983824       -0.80414958334001        0.56712493939406
C           -7.18385319522348       -1.77562986087153       -1.12133411462981
H           -6.81930666366257       -2.03928603285565       -2.12106776407492
C           -7.22549249865366       -3.04025399995503       -0.25378322649911
C           -8.62097032315979       -1.25797014758250       -1.30240242857131
H           -7.58857453939155       -2.83054037903688        0.74953440979116
H           -7.88356128881475       -3.76885889852011       -0.72154174586416
H           -6.22934018848216       -3.46860439562635       -0.17844831634631
O           -9.19488079144487       -0.76501956794330       -0.20519134247236
O           -9.19628631667273       -1.30721795851557       -2.35045342178780
