42
 energy: -62.486133511041 gnorm: 0.000479668942 xtb: 6.7.1 (edcfbbe)
N           -1.03172482597971       -1.10178724686971        0.66795287878170
H           -0.03975224815465       -0.99856840728776        0.49507401500699
H           -1.22588225758774       -2.09645003447304        0.74635125756926
H           -2.36775934660553       -0.37288729735329        1.82467421816148
C           -1.82178860337083       -0.51809573933311       -0.41536892770826
H           -1.36141169562495        0.44124337420276       -0.68183122805268
C           -1.93149910078095       -1.38529005262569       -1.66864641218215
C           -3.19711271915940       -0.18987770319915        0.15136430026836
H           -2.32135900295746       -2.37033028452355       -1.41511005586174
H           -2.61162731968779       -0.91454160797938       -2.37092392546535
H           -0.95644979962965       -1.50537779663406       -2.13573669851657
O           -3.26354825414307       -0.15293689722593        1.49504951069793
N           -4.15011689222520        0.04903218518422       -0.63605660939719
H           -4.86504016991537       -1.92156830730825       -0.06963881784637
C           -5.46362203183215        0.40660021397593       -0.14619678123826
H           -5.42574885251037        0.65834186692380        0.92652504495488
C           -5.98279189478393        1.61089040907002       -0.94214696727168
C           -6.38306883863820       -0.79338157050712       -0.26786706016377
H           -5.12808275657031        2.24146075526679       -1.19389999571904
H           -6.41129545782551        1.24412684698059       -1.87470129132640
C           -7.02016447398235        2.44049749778593       -0.17623692737928
O           -5.82857639397362       -2.00967199549128       -0.09934706705417
H           -7.70041265368852        1.75357985204296        0.33552133548386
C           -6.34761773367730        3.33227996885718        0.86617114890072
C           -7.82666905779134        3.29874121712068       -1.14879235212221
H           -5.70587437892080        4.06421649346222        0.37947359049164
H           -7.09551378347592        3.86643161522381        1.44746344746920
H           -5.73935951922854        2.74888227403367        1.55321383498916
H           -8.35761353078263        2.68075814228308       -1.86833951178370
H           -8.55723822991524        3.89725979796391       -0.61000064616470
H           -7.16781148669715        3.97222881124620       -1.69313958279941
N           -7.60690518248401       -0.61890266009084       -0.50270783921621
H           -8.90581535612639        0.44156056906233       -1.19544339342827
C           -8.53065672131841       -1.72284906322283       -0.62108297710890
H           -8.09240261339887       -2.56847318218896       -1.16691084816851
C           -9.00348510079682       -2.21337894457398        0.75151699774030
C           -9.75037060902591       -1.20934229963472       -1.40196132784106
H           -9.40884482508059       -1.38163608928611        1.32423438626347
H           -9.77748254613024       -2.96359066284725        0.61655678267885
H           -8.16925657765745       -2.64702667048428        1.29738682627347
O           -9.74389438442348        0.10415502649708       -1.59179644418631
O          -10.63054403513969       -1.92834825570817       -1.78571083304788
