42
 energy: -62.486133515080 gnorm: 0.000480393381 xtb: 6.7.1 (edcfbbe)
N           -1.50822149189946       -1.59649947667514        0.58631219240637
H           -0.98821710003836       -0.87494678485161        1.07518349446039
H           -0.84307757240705       -2.28107465279397        0.24588901021620
H           -3.23203924035892       -1.60097915696417        1.47966717580283
C           -2.27072002368411       -1.02245188684705       -0.52228485143518
H           -1.73208728523460       -0.24684948945937       -1.08262669872318
C           -2.69992852565862       -2.12991203535182       -1.48566845569125
C           -3.52571449200173       -0.40564688743262        0.06304710017925
H           -3.22521161753672       -2.91373902648352       -0.94375212690882
H           -3.36322278033420       -1.71617840527603       -2.23901068564041
H           -1.83126139073675       -2.56463043986897       -1.97554873460828
O           -3.92624403623353       -0.95612493701920        1.23253162432152
N           -4.10463396027142        0.52462108191242       -0.54649288506756
H           -5.86544904163826       -0.00762712132425        2.08012224912865
C           -5.36251979408167        1.07995041385557       -0.08313467628783
H           -5.17642458253366        1.64193480848650        0.84472821763773
C           -5.87886783729854        2.02163121248224       -1.17394924698754
C           -6.36848157789464       -0.01357629968126        0.20570243897145
H           -5.08529479844576        2.73470207552734       -1.40041621585730
H           -6.05444892939498        1.41003226196340       -2.05798498665607
C           -7.16581054255572        2.76637821666220       -0.80814797612790
O           -6.60626760157657       -0.29939692967333        1.53371686637625
H           -7.92453459707057        2.03159701393023       -0.51852539718080
C           -6.95836354158088        3.74209952502461        0.34899364842976
C           -7.67616787952150        3.51996221695723       -2.03469027304883
H           -6.16460869639677        4.44767386310574        0.11193074943549
H           -7.87155891355693        4.30315629539072        0.53353850635524
H           -6.69727681607715        3.22424207098772        1.26870131265137
H           -7.86098927848308        2.83073491036472       -2.85432046401385
H           -8.60487191642240        4.03738049941037       -1.80619803262355
H           -6.94298307535326        4.25537830824848       -2.35959862374172
N           -6.93034211513937       -0.58755361795419       -0.75298090715986
H           -8.39830912936702       -0.48389340605098        1.35597504952776
C           -7.87485545688535       -1.67070101274669       -0.68353795217668
H           -8.00142229296168       -2.01061633013275       -1.71808713925204
C           -7.42792828069224       -2.85695574044971        0.18281290084139
C           -9.26008783308983       -1.21072006743921       -0.20278372316231
H           -7.35897691674556       -2.58135147281800        1.23274887452983
H           -8.14101930686160       -3.67065581140978        0.07658493539609
H           -6.45002102149123       -3.19675878344127       -0.15130601101246
O           -9.28758581547300       -0.57074537078421        0.96513454061254
O          -10.26014415031935       -1.43391546002247       -0.82333966781112
