42
 energy: -62.486133515029 gnorm: 0.000479340631 xtb: 6.7.1 (edcfbbe)
N           -1.46599023041123       -0.15936179975844        0.37955051293036
H           -0.70157315599250       -0.80787568476739        0.23862608778774
H           -1.32942098619998        0.28160250896656        1.28500558466930
H           -2.35271706803842        1.21168083061801       -0.53778368614591
C           -2.75558364607926       -0.85342696929646        0.35840568962346
H           -2.72985413680288       -1.57462364888396       -0.46726264304789
C           -3.09470365777604       -1.58453550688721        1.65440824494737
C           -3.82158828959991        0.17971428056696       -0.00167301486037
H           -3.11362160462612       -0.88208828053849        2.48552019305476
H           -4.07286118634952       -2.04402070455164        1.57085568545433
H           -2.35350969167510       -2.35456382439037        1.85880506436336
O           -3.32941873644556        1.30627202782579       -0.55440825477405
N           -5.02262267341352       -0.09860534142684        0.22175874140010
H           -8.50404948388047        1.35457793350987       -0.30787510529664
C           -6.16499692123712        0.72940729177847       -0.05574139055258
H           -6.26865181390031        1.43816373397523        0.78077025075582
C           -6.16120023898149        1.51616348151292       -1.39189978605571
C           -7.37735869391859       -0.17959690148376       -0.01862283858242
H           -5.16012989214566        1.47498937328989       -1.81701626251698
H           -6.82951844502173        1.01410846838783       -2.09738853356118
C           -6.56618423714898        2.99111830807011       -1.25984505790283
O           -8.59026860434148        0.40198824328348       -0.17643910949490
H           -7.48940634166638        3.07503367623249       -0.66796835049175
C           -5.47735171499631        3.79894559945439       -0.55878116410358
C           -6.84056327239104        3.57421758555420       -2.64497661042928
H           -4.56044157003218        3.77169488643335       -1.14147730082029
H           -5.78743176533764        4.83510864408726       -0.44228408348175
H           -5.25881802902955        3.39438535166852        0.42628728478719
H           -7.65066808791263        3.04143695066371       -3.13890195867504
H           -7.11730214937150        4.62323475752766       -2.56884594029782
H           -5.95124117710186        3.49841532722302       -3.26618395916130
N           -7.22182645804676       -1.41055596756601        0.15740965481699
H           -6.09752350953021       -2.66791074796171        0.61981306665092
C           -8.28998576496575       -2.37312837706971        0.22454897314731
H           -9.09229439221611       -2.05049200068326        0.90052156271066
C           -8.89276248436534       -2.67195623612335       -1.15174657242140
C           -7.65996750549971       -3.66409659555295        0.78196578096944
H           -8.10304746443324       -2.94206247733604       -1.84994304774165
H           -9.58981839316762       -3.50062116306970       -1.06479263788459
H           -9.41583176113864       -1.79612973743249       -1.52742603395632
O           -6.34247331664256       -3.58890875810503        0.90416778502667
O           -8.30161270326231       -4.63972402006219        1.05979763823873
