42
 energy: -62.486133518286 gnorm: 0.000479225042 xtb: 6.7.1 (edcfbbe)
N           -0.70131046911522       -0.05222389207298       -0.43192258590869
H            0.11038647000808       -0.40777865193097       -0.92228397658312
H           -0.54976970406409       -0.20165844305866        0.56176776168998
H           -1.81863011681124        1.50903275925636       -0.43323817587943
C           -1.91752182171533       -0.74136814624910       -0.85899275989316
H           -1.91671799108958       -0.74181516993445       -1.95749994686141
C           -2.04023753414925       -2.17936710547960       -0.35745139143144
C           -3.09352038879690        0.13379621409086       -0.43130115150268
H           -2.16412015019704       -2.19381400478985        0.72303500905677
H           -2.89683987550437       -2.66671710297427       -0.81094843254385
H           -1.14473151504650       -2.74056237367099       -0.61865731366612
O           -2.78630149364039        1.43120922744604       -0.30090469050959
N           -4.20725244898480       -0.40789756141947       -0.22280631482762
H           -5.07014613797964       -1.93432281433336       -0.48244965144151
C           -5.46822060127723        0.23745276438113        0.08155971071077
H           -5.51607912906626        0.41803032181145        1.16273082837286
C           -5.64630045427153        1.57055872238142       -0.66743171781417
C           -6.52743631530463       -0.80737424185031       -0.26530444547859
H           -4.84410079554880        2.23137830332294       -0.33672825641883
H           -5.49667003929162        1.37262002527382       -1.73226545803589
C           -6.97575158372035        2.30742257369357       -0.48645616430813
O           -6.04925221759476       -2.02947465659524       -0.52468576025574
H           -7.75875228035001        1.74285575139446       -0.99523461823690
C           -7.34915353915733        2.46767680864086        0.98418311757310
C           -6.87312910405392        3.67956393701309       -1.15244239858367
H           -6.55182723378620        2.97375327807470        1.52545155093604
H           -8.25476286544161        3.06236129921099        1.07715764543350
H           -7.52729558585311        1.50027394597544        1.44598425493508
H           -6.60006658218033        3.57992164626589       -2.20032650838660
H           -7.82750603547573        4.19706565302867       -1.09638867286545
H           -6.12070167711310        4.29104250169722       -0.65812824060755
N           -7.75317202830303       -0.51041870683158       -0.30856309012382
H           -9.20164917054410        0.63333221758155       -0.05121139499610
C           -8.74069874868340       -1.51637033583539       -0.64227111416075
H           -8.46405794268240       -2.06849474256126       -1.54885738224919
C           -8.95340100888712       -2.51952414880955        0.49927043484198
C          -10.07394102199336       -0.79746889461198       -0.87723945437117
H           -9.20706592960182       -1.99123239318928        1.41666355523207
H           -9.76613173631089       -3.19221164928942        0.23991737717672
H           -8.04534777847251       -3.09468876731916        0.65921144186098
O          -10.10368974667326        0.43833446246416       -0.39069176304213
O          -11.01331693127289       -1.31492449275490       -1.41531484878758
