42
 energy: -62.486133511634 gnorm: 0.000479858493 xtb: 6.7.1 (edcfbbe)
N           -1.96589378612283       -0.63011484388833        1.65557513334136
H           -1.02826866473340       -1.00524286749053        1.57474042944679
H           -2.42958908331783       -1.13467242953025        2.40693694752474
H           -2.91726982317331        1.04678479398109        1.75108937361869
C           -2.70999101600385       -0.82032455655688        0.40962224777038
H           -2.06880117655923       -0.46269278813173       -0.40716124041579
C           -3.13148361228043       -2.26000763521267        0.12801330326743
C           -3.91020126661922        0.11163707351803        0.46240603021425
H           -3.71257905791165       -2.65337145705628        0.95887599014524
H           -3.75020643534047       -2.28433087856068       -0.76198200716321
H           -2.25660433610391       -2.88947949563055       -0.02094642263895
O           -3.76616184383344        1.17246995389406        1.28117905526463
N           -4.92725790936212       -0.14089655239976       -0.23019707275341
H           -8.27251562795506        1.36853392371529       -1.14279100657208
C           -6.06658453524232        0.74540088807452       -0.22578181800719
H           -6.17050185666863        1.24365779157589        0.75223474213473
C           -5.92452650274051        1.82052650625973       -1.32479963240485
C           -7.29139611426553       -0.12321525693410       -0.42740609575248
H           -4.86184208291163        1.93307749961993       -1.54697845289831
H           -6.39716998680829        1.46069376973803       -2.24307393377658
C           -6.48771857167479        3.19388047140812       -0.92550411491891
O           -8.41401551951006        0.43815713482013       -0.92657494102375
H           -7.41797019513905        3.06409845156432       -0.35575157001515
C           -5.49277453919754        3.93450906294071       -0.03413890706566
C           -6.79886149346626        4.02240104271434       -2.17116135093621
H           -4.60289823981948        4.19396116139442       -0.60360057014582
H           -5.93234391547845        4.85078314916186        0.35298578114177
H           -5.18753005715518        3.31493400909601        0.80516771275153
H           -7.55667038328201        3.54153961402986       -2.78729405459302
H           -7.16364583772386        5.00742387500855       -1.88991386580190
H           -5.90110738620936        4.14920370136634       -2.77188486181725
N           -7.21928296958182       -1.32309231705981       -0.06548669108886
H           -6.19003460747774       -2.59433863499508        0.58361787659437
C           -8.28828716494696       -2.28276204403255       -0.16171260033713
H           -9.20186167902026       -1.92645728360234        0.33090036417364
C           -8.61879012074322       -2.65484205795353       -1.61104511694809
C           -7.78900302304883       -3.54468893274779        0.56639046766997
H           -7.71135880000798       -2.95745393693404       -2.12976428498311
H           -9.32568323226523       -3.47981100151181       -1.61712355586788
H           -9.05351688724024       -1.80120739062364       -2.12446698863507
O           -6.50142528141091       -3.48975622107867        0.87928771146246
O           -8.49256667693520       -4.48694144417360        0.80645374108280
