42
 energy: -62.486133509011 gnorm: 0.000480372072 xtb: 6.7.1 (edcfbbe)
N           -1.40797703157676       -1.52152779517214       -0.73662509798553
H           -1.28443444313100       -2.27456456896113       -1.40166796039782
H           -1.01376247059246       -1.82633697064662        0.14875004326031
H           -1.04941540075089        0.24492662433602       -0.43021614562979
C           -2.82275205176781       -1.18215158072516       -0.56553464818514
H           -3.31573437812911       -1.33881349669969       -1.52943096550891
C           -3.50446460656044       -2.03783541435570        0.50670779997873
C           -2.90075801047349        0.31569815013218       -0.15881781648458
H           -3.02273429449638       -1.87611172440946        1.47015930159516
H           -4.55435460163094       -1.78042786557500        0.60913934910118
H           -3.43141888004289       -3.09335690041558        0.24808764436188
O           -1.70199958332348        0.90920440535993       -0.11746578295362
N           -3.86963594510919        0.97178317025874        0.29066784899245
H           -4.88288952105673       -0.00829017583646       -1.97571228187550
C           -5.28488030267903        0.98903817799522        0.17463966800059
H           -5.66529819825364        1.10233571711002        1.19577547821224
C           -5.65588103609280        2.26173590779133       -0.62393581530808
C           -6.00396165234072       -0.19055009946779       -0.44238815375434
H           -5.09822276175709        3.08456173200795       -0.17599354180588
H           -5.29876970589118        2.15000192543325       -1.65244253517273
C           -7.15101412326121        2.59602390360623       -0.64332232706639
O           -5.56194378266241       -0.61437371901401       -1.65227363747486
H           -7.70680391391015        1.73155679044904       -1.02204106805595
C           -7.67436624747755        2.93651627115067        0.74923831932903
C           -7.38941349895555        3.77242605427513       -1.58943303317047
H           -7.11909533942878        3.77348716247605        1.16675405014035
H           -8.72452723448009        3.21190267586341        0.69503180529707
H           -7.58538782024144        2.08924700984930        1.42318602597161
H           -7.05829606880910        3.53533600961232       -2.59815460575012
H           -8.44774957885162        4.01737954773148       -1.62769113459648
H           -6.84555526044919        4.64976568683104       -1.24642141017516
N           -7.08379649190183       -0.59198414434831        0.06782207423514
H           -8.54930688810352       -0.18645535868966        1.09917960316777
C           -7.89763817706295       -1.60049564738748       -0.57076348641328
H           -7.89400086866277       -1.49900059325362       -1.66413613560649
C           -7.43068511850934       -3.01293670168059       -0.20551999610800
C           -9.33679367217844       -1.41796513748650       -0.06565934393933
H           -7.35769308416174       -3.11211231695714        0.87540441736865
H           -8.14980176228917       -3.73470493665162       -0.58213657580283
H           -6.45735512166188       -3.20940465060845       -0.64789485544704
O           -9.44870751740802       -0.54640934723147        0.92924306499022
O          -10.26691453974967       -2.01902774056430       -0.52507636634874
