42
 energy: -62.486132338682 gnorm: 0.000612509044 xtb: 6.7.1 (edcfbbe)
N           -1.33684909459982       -0.84666204043936       -0.30501892658320
H           -0.67863812179048       -1.61383675847972       -0.37099104090926
H           -1.04401471002902       -0.25984367106687        0.47173662057539
H           -2.22813619983967        0.42214871736854       -1.44673038426587
C           -2.69113336188220       -1.34395948572978       -0.06255692540888
H           -2.87898634034386       -2.13722639957711       -0.79847521496839
C           -2.93348848902252       -1.89267786482102        1.34012072923569
C           -3.65353023432691       -0.20890888317307       -0.39968986249779
H           -2.72322035795500       -1.12665198452493        2.08329465736259
H           -3.97363100941652       -2.18347368529486        1.43667145291105
H           -2.29564191822401       -2.75445128690671        1.52684873831549
O           -3.16448370552811        0.66778221775424       -1.30273145663763
N           -4.78164992208156       -0.20294884634259        0.14335887388686
H           -6.88000496565573        0.70867230377327       -2.32321245310085
C           -5.85929259609401        0.73504642283403       -0.06204805576376
H           -6.15587837320342        1.02480382795756        0.95432791364094
C           -5.57977314658211        1.99953477808643       -0.88245490141243
C           -6.99351280731637       -0.12717314104582       -0.59913642007486
H           -4.69925257635621        2.48474602766121       -0.45793340630192
H           -5.31191764909276        1.73524311146613       -1.91029712055320
C           -6.75056469918045        2.99537987763283       -0.87092946433172
O           -7.36846463508946       -0.00172227002672       -1.88662134457094
H           -7.69520744346452        2.45672454910982       -1.01219894641731
C           -6.82842417175969        3.73783212817005        0.46140249235620
C           -6.58936358737062        3.99795828825471       -2.01357121401737
H           -5.91317285456966        4.29982549152325        0.63567193740904
H           -7.66236067251078        4.43584500848304        0.45492452283977
H           -6.97334575869777        3.04813711564693        1.28896964088758
H           -6.59523890814372        3.49937983250420       -2.98121001009505
H           -7.40062019149848        4.72188831072926       -2.00130544978925
H           -5.64904978583632        4.53560963632062       -1.91226145320815
N           -7.48350506218709       -0.98925232291855        0.17467405079803
H           -7.60352227753577       -1.68908119835089        1.82369031690929
C           -8.50069632251519       -1.92747853563249       -0.23619479318373
H           -9.33101699250997       -1.42961787961206       -0.75273617348343
C           -7.93915056738031       -3.02578755123922       -1.14626742298845
C           -9.03531130644710       -2.58930978180726        1.04466260973085
H           -7.07613754688092       -3.49021004848785       -0.67332730368451
H           -8.70465091498307       -3.77851694707195       -1.31279222795875
H           -7.63518558685902       -2.60078504135632       -2.09924972689788
O           -8.30890851832666       -2.31509491467989        2.11970467217089
O           -9.99925787511855       -3.30391292742540        1.05881769244010
