42
 energy: -62.486133513551 gnorm: 0.000479773393 xtb: 6.7.1 (edcfbbe)
N           -1.95038390314775       -2.41103909056022       -0.32058675317045
H           -1.16466492553089       -2.55415152721697        0.29846409334325
H           -1.73988428784170       -2.84333753770080       -1.21132817416747
H           -3.66866698452060       -2.61288405937922        0.26758893778581
C           -2.27816315210051       -0.99200129797850       -0.48715842695261
H           -1.60242192177534       -0.35647962494544        0.09447660268038
C           -2.23449684368142       -0.55613662499422       -1.94978050407192
C           -3.69990993334517       -0.77133239818738        0.04577413722832
H           -2.91493392505417       -1.16708713654690       -2.53968111202658
H           -2.55077057871966        0.47923304857761       -2.02148874706108
H           -1.22659310725250       -0.65354402851522       -2.35006228387026
O           -4.31710608478140       -1.88843745260872        0.44056011047187
N           -4.10163120216572        0.41597349052257        0.11899247141052
H           -7.29205815469642        0.72074162386619        1.98537283224391
C           -5.42853422139679        0.87697576064450        0.42324943577278
H           -5.37708946980898        1.32998684877793        1.42541309450607
C           -5.74330499948939        1.97798886319782       -0.61303736673149
C           -6.54368595245324       -0.14113022436958        0.39784239239348
H           -4.88299748437341        2.64762983287657       -0.64608358010848
H           -5.82245868666925        1.48122302625465       -1.58119700933444
C           -7.01887824792743        2.78314194126467       -0.34469241210189
O           -7.51170086961866        0.00000212489735        1.38329407257493
H           -7.85293964461324        2.09422129852787       -0.17019938854948
C           -6.86735720153527        3.70262716659034        0.86659058022086
C           -7.35876882385985        3.61608601355938       -1.57966274983900
H           -6.06687599526910        4.41870400331460        0.69373087154135
H           -7.78875074418375        4.25462973062896        1.03875108112646
H           -6.63320652014086        3.15012944808101        1.77433774662883
H           -7.52809697180346        2.97256583098265       -2.43913554492107
H           -8.25901618694579        4.20161722885136       -1.40842913131164
H           -6.54360778471875        4.29750269368436       -1.81333399220373
N           -6.55772098371088       -1.02679301700384       -0.48078642462128
H           -8.92690371449483       -0.41137834191596        0.34809267020667
C           -7.51492767121596       -2.08754927338309       -0.64624957925788
H           -7.09730544715065       -2.73354714618353       -1.42726076273748
C           -7.74812082371359       -2.92029279646968        0.62102927023021
C           -8.86674566835084       -1.58389691150628       -1.17111932503231
H           -8.25015420476420       -2.34127616720255        1.39300656209334
H           -8.35476788139111       -3.78936281749076        0.37946692174643
H           -6.78576797156522       -3.24861225656587        1.00632343731370
O           -9.46225626574809       -0.64578841013414       -0.43451223728949
O           -9.37256583375749       -2.01694795181098       -2.16763701149337
