42
 energy: -62.486133513677 gnorm: 0.000479589572 xtb: 6.7.1 (edcfbbe)
N           -0.89315418076270       -0.35760529219194       -0.67923722790672
H           -0.18076808614039       -0.80336223251185       -1.24425779639011
H           -0.63168508222191       -0.47958647235375        0.29530628325750
H           -1.87129550866906        1.29215472099756       -0.60225906246519
C           -2.20469638144411       -0.95979981815948       -0.91974866679164
H           -2.33014593711657       -1.04488232889684       -2.00660897585029
C           -2.40622303926878       -2.33235933785480       -0.28371460623049
C           -3.25794395373923        0.03603041018044       -0.44809153828092
H           -2.24174066256722       -2.27560988129116        0.79067477028146
H           -3.42650831898477       -2.65564288045402       -0.45811291279051
H           -1.71560530089443       -3.05715699783846       -0.71020551595443
O           -2.82543790211915        1.31040562911093       -0.38309585624210
N           -4.40604157108743       -0.38336537339864       -0.16675909683982
H           -6.84652588827830       -0.24090316443778        2.15636363511065
C           -5.50683819868460        0.46394748235341        0.23067490419266
H           -5.31911040048027        0.83169197140392        1.25114752419631
C           -5.74892447253164        1.65857448446129       -0.70838065907085
C           -6.73892502348950       -0.41510027592411        0.21635419536472
H           -4.85210092873251        2.27709532246918       -0.73079823268105
H           -5.91437113422632        1.24147014065471       -1.70260071949922
C           -6.95160640168923        2.52223088836588       -0.31349967184199
O           -7.36047037609683       -0.62520606057638        1.43635371677004
H           -7.82591405448000        1.87662902003053       -0.17370651534034
C           -6.69700396297049        3.29776908458285        0.97805996172800
C           -7.26271870052919        3.49686154367361       -1.44761155826721
H           -5.81374533038627        3.92448977983784        0.87275933812065
H           -7.54668687843916        3.93752884642011        1.20548775983909
H           -6.54533002444191        2.63344781239387        1.82603815737447
H           -7.49440364844999        2.95525562617353       -2.36104682780545
H           -8.11759321136844        4.11870991738956       -1.19258627760731
H           -6.40875699133298        4.14439208925757       -1.63559759627152
N           -7.12991235578456       -0.89859231327678       -0.86562337552101
H           -9.05799735877029       -0.50821025927912        0.80833394833839
C           -8.25194143222614       -1.77375020652292       -1.08038489520413
H           -8.16866458048754       -2.10032301706969       -2.12347880339041
C           -8.28167713939375       -3.00869719359704       -0.16941142440273
C           -9.59543378406176       -1.03814194596208       -0.95967928993279
H           -8.43402751640184       -2.73414999817828        0.87204435522410
H           -9.08602224965802       -3.67000353659421       -0.48203530273510
H           -7.33455527528461       -3.53671545176356       -0.25285324603908
O           -9.80919546841995       -0.40530401548507        0.19432087459482
O          -10.41449255050950       -1.04624242132370       -1.83359862583273
