42
 energy: -62.486133517176 gnorm: 0.000479443172 xtb: 6.7.1 (edcfbbe)
N           -1.29628446208845       -1.75430805737372        0.09990777076468
H           -0.87455610006434       -1.38694200419721        0.94667376611318
H           -0.55807917668794       -2.15017362156847       -0.46990407027867
H           -3.07558899728264       -2.30066340092545        0.62052113230046
C           -2.00627006426386       -0.70316199820091       -0.62777071867776
H           -1.49985850371099        0.27129537212919       -0.61069914675694
C           -2.22135994583665       -1.13039981861686       -2.07994251272973
C           -3.37159963587113       -0.54614864508021        0.02300472629244
H           -2.73854100629200       -2.08687430786528       -2.11728290931370
H           -2.82148006623200       -0.38480386767084       -2.59223846765843
H           -1.26584420956241       -1.22805413254593       -2.59115310838497
O           -3.80204725831775       -1.64542511812683        0.67431168468001
N           -3.97858163306003        0.54279485721135       -0.10147555997721
H           -5.38603852568866       -0.82786003072249        2.20306644781871
C           -5.31588380127447        0.83852354999607        0.36800254307214
H           -5.20047515321538        1.31035742343113        1.35607126362706
C           -5.89550524025425        1.86863105287494       -0.61048929757813
C           -6.22379233118481       -0.36341669011919        0.53723240928612
H           -5.15378751427525        2.66197113635233       -0.71283044204296
H           -5.99907484661207        1.38101004695892       -1.57979976710376
C           -7.24161335075468        2.46878344499928       -0.19531031079319
O           -6.19398732499064       -1.02447135880116        1.71335673814847
H           -7.94796547001076        1.65231251091392       -0.01869566144356
C           -7.12640577560988        3.30116885428619        1.08017719649261
C           -7.77873592614648        3.33445777675259       -1.33387406392214
H           -6.36589708596648        4.07084427252893        0.96520118176029
H           -8.07481543733210        3.78740137157338        1.29723888967625
H           -6.86776212348043        2.68299778869809        1.93633767350268
H           -7.89795023255880        2.74691437387995       -2.24073896827686
H           -8.74608120214856        3.75519292294402       -1.06971981683816
H           -7.09409927816812        4.15397658903691       -1.54198296044825
N           -7.02497720907617       -0.66549076686446       -0.38648462371100
H           -7.51505167866497       -0.53176648647328       -2.11029005882792
C           -7.92603137314615       -1.78860065459097       -0.28378572321747
H           -7.43808935232503       -2.66721115421850        0.15691584213352
C           -9.16518619804729       -1.44229041911691        0.54966064083245
C           -8.38268445737246       -2.12805668235978       -1.71041525455482
H           -9.64944998387831       -0.55493579600072        0.14609633345586
H           -9.86371753908971       -2.27355515062187        0.51680544231144
H           -8.87553063605078       -1.25224895070416        1.58009908984147
O           -8.04127430134475       -1.20662592555510       -2.60338980358853
O           -9.00423686100473       -3.11717434495327       -1.98347219313527
