42
 energy: -62.486133505465 gnorm: 0.000480839863 xtb: 6.7.1 (edcfbbe)
N           -2.40387224318306       -1.39323378168994        1.88507235462802
H           -2.08060738946681       -0.61089197730771        2.44394208249092
H           -1.64606160178228       -2.06071691968544        1.80582138796373
H           -4.28259641195603       -1.48558540288074        2.24017024296403
C           -2.84746264222071       -0.94447089260192        0.56692684125556
H           -2.20833710852641       -0.17265307332023        0.11705824999382
C           -2.93983375529551       -2.14262947609638       -0.37958537128885
C           -4.25256125388507       -0.38553263354050        0.72497754138144
H           -3.57455281036465       -2.91246016697974        0.05409446195577
H           -3.36550214658148       -1.82596313252317       -1.32700140618710
H           -1.95173406423964       -2.56149725469133       -0.55892521151817
O           -4.92771685018245       -0.92021413918271        1.75950835953272
N           -4.62016111238509        0.53865141935137       -0.03868542446259
H           -8.16632318005795        1.39156821929977       -1.09590008366993
C           -5.95528955938337        1.05636170368011       -0.18433801044796
H           -6.22016346714408        1.61757904703433        0.72986567978846
C           -5.92972278276792        2.02874686318760       -1.38447938220516
C           -7.05192556785824        0.01613944768206       -0.32422041091990
H           -4.87892484754840        2.18934444285403       -1.62763290998776
H           -6.38356359230033        1.55104213692967       -2.25702625160289
C           -6.58954915416937        3.39063260289220       -1.11968107752883
O           -8.21713118054849        0.45699889695480       -0.86048921362606
H           -7.54139662130542        3.25198942025554       -0.58760663435212
C           -5.68933640277979        4.26111944437081       -0.24577204145876
C           -6.88166840564403        4.09848861906679       -2.44174115442832
H           -4.76403848046882        4.48691276780934       -0.77041633058805
H           -6.18463080966471        5.19801834500798       -0.00083036618515
H           -5.43757419605098        3.75348111676584        0.68204346630453
H           -7.56692060372935        3.51731171561228       -3.05605669118697
H           -7.32936774270321        5.07296522770717       -2.26127012540952
H           -5.96045761694807        4.24318464636098       -3.00121984175294
N           -6.91534943844739       -1.16551146487099        0.07812329143521
H           -6.14282567756224       -2.31648743367046        1.33140468777801
C           -7.97544238788139       -2.13704124941304       -0.06558816785705
H           -8.93859792020362       -1.73209979327641        0.27504564191039
C           -8.12857580879661       -2.60966460810751       -1.51463598680901
C           -7.63122108496764       -3.34672382931325        0.81559753474034
H           -7.16404726462128       -2.93432396583054       -1.90003634149674
H           -8.82270494328419       -3.44488887796449       -1.54232861450447
H           -8.50688213012194       -1.80203094566389       -2.13567480760890
O           -6.51008167523791       -3.21870323334270        1.50835501988684
O           -8.32147934599828       -4.32923810466653        0.86207087728955
