42
 energy: -62.486133507292 gnorm: 0.000480509253 xtb: 6.7.1 (edcfbbe)
N           -2.12990181210808       -1.87701829430310        1.29780108913471
H           -1.90667578141786       -1.29229227102667        2.09690553130371
H           -1.33440606711359       -2.47899670756930        1.11933075855925
H           -4.06826768757483       -2.03249463606439        1.40936563154973
C           -2.43441213699163       -1.05816564171411        0.12692935986093
H           -1.76303437282746       -0.19911594624611       -0.00812518503816
C           -2.39742489428700       -1.92879007208298       -1.13030890595252
C           -3.85332292652485       -0.53957354559503        0.30176921551726
H           -3.08099481433393       -2.76861325592946       -1.02377184594258
H           -2.69126823654612       -1.33917216262924       -1.99345533187312
H           -1.39339692874140       -2.31421718862378       -1.29467119121166
O           -4.64242474494761       -1.32825505523438        1.04297084156327
N           -4.16845069062480        0.54722892117976       -0.24527990560498
H           -5.99819026227698        0.11192703194814       -2.37421419624328
C           -5.51078849278107        1.10027459240607       -0.22709632865541
H           -5.72395937030202        1.45444291388418        0.78898554162868
C           -5.54649806936907        2.28043480480847       -1.20566492885089
C           -6.54177747385672        0.04081159229318       -0.54087250429358
H           -4.86392774598601        3.04077682650481       -0.82353892981374
H           -5.14420713242791        1.96069351075143       -2.17204621831268
C           -6.93967492129675        2.88998160674618       -1.40147457276455
O           -6.61692406505477       -0.38313852709278       -1.82219362395631
H           -7.61620626454011        2.12292410717307       -1.79599757198390
C           -7.51944416602884        3.40330243710012       -0.08547333034422
C           -6.85708057508299        4.02618359512505       -2.41997473398127
H           -6.82895377196319        4.09705951361154        0.38930949964711
H           -8.45627999138330        3.92432862355314       -0.26872041283338
H           -7.71905945387516        2.58290782930517        0.59877685012706
H           -6.45985018227062        3.67139232917877       -3.36873453706170
H           -7.84270949971828        4.44828175045273       -2.59983063340448
H           -6.20769396121965        4.81698666556541       -2.05085235172749
N           -7.22531204777935       -0.45311905845939        0.39133373214600
H           -7.61906296523049       -0.56761518238892        2.14953267658757
C           -8.17459224577743       -1.52141259350536        0.18016582785233
H           -8.88408886109789       -1.27775740308863       -0.62034409272318
C           -7.49061789110401       -2.85328422269788       -0.15048934317418
C           -8.94571327826676       -1.69766125250099        1.49685836224730
H           -6.74082824721922       -3.07483126597970        0.60595997574586
H           -8.23469808157399       -3.64478504320904       -0.16381540455591
H           -7.00822890363932       -2.79206352411547       -1.12242466424278
O           -8.39224429741143       -1.05752290789999        2.51878358917880
O           -9.93359791648173       -2.37206873285235        1.59352749625962
