42
 energy: -62.486133508162 gnorm: 0.000480504497 xtb: 6.7.1 (edcfbbe)
N           -1.19447962645117        0.27289657081995       -0.28752917699300
H           -0.25449731023092       -0.05860359698369       -0.09856418522348
H           -1.63540108313296        0.50401695025475        0.59635167484323
H           -3.36001394788602       -0.27823084552584       -2.92996107854363
C           -1.97063594794254       -0.75866753167637       -0.95192286527370
H           -1.58011147369424       -0.84997767952347       -1.97659602801016
C           -1.90342523017060       -2.13705584345286       -0.27137148781723
C           -3.41291552261466       -0.29172982341149       -0.99891225950570
H           -2.29095030050137       -2.06092899658799        0.74210682102262
H           -2.48810297592755       -2.87068120974619       -0.82271086583973
H           -0.87164490860898       -2.48061720702263       -0.23109271416005
O           -3.98880911594914       -0.14286155641972       -2.21017704861237
N           -3.99669689190525       -0.10164993011965        0.10160315050090
H           -4.88950636540230       -1.96521629580421       -0.14325935814354
C           -5.36582663630460        0.36315446457639        0.22342287267413
H           -5.50467693505815        0.52406578573098        1.30155624652523
C           -5.55463243169444        1.70580319912560       -0.50416830828810
C           -6.34332042471106       -0.72908495474744       -0.17558533785918
H           -4.74384862731284        2.35120751060962       -0.15353386928590
H           -5.41283813239691        1.54157968737832       -1.57251055037224
C           -6.88727217996284        2.43293796301052       -0.30472665646192
O           -5.84147306036713       -1.97238834676938       -0.32493529262334
H           -7.65711566003488        1.89426283807618       -0.86046753612926
C           -7.30236880514229        2.52025598327819        1.16082592754832
C           -6.77143765358749        3.83650788873448       -0.90000063716749
H           -6.51667496670026        2.98453689780721        1.75370332224510
H           -8.20201880176417        3.12384736008664        1.25593405142349
H           -7.51144874817921        1.53362216431674        1.56552685688003
H           -6.46259561649351        3.78843476664542       -1.94157515868444
H           -7.72972934305826        4.34744772541690       -0.85149793628313
H           -6.03966992578499        4.42638047709786       -0.35145723126637
N           -7.57175372997020       -0.47712541828110       -0.29387710567529
H           -9.06981294234510        0.64366856397381       -0.18562585767799
C           -8.51624476418935       -1.52241873818407       -0.62787366359144
H           -8.16745563895560       -2.13101198978111       -1.47064542446631
C           -8.79752638151657       -2.44449259576089        0.56628400221606
C           -9.84063803203728       -0.84881787775014       -1.00613430103808
H           -9.11984861233704       -1.85600433041184        1.42344652779527
H           -9.58361420600363       -3.14577595717270        0.30061129498978
H           -7.89846900851569       -2.99477812090803        0.83082460693476
O           -9.93605609072851        0.40703704192594       -0.58469594243628
O          -10.72063320131866       -1.41557050412808       -1.59185427455973
