42
 energy: -62.486133513948 gnorm: 0.000479792953 xtb: 6.7.1 (edcfbbe)
N           -1.71470236461333       -0.96755371315686        1.61136436455143
H           -0.80552486190761       -1.39534343218721        1.48272247317038
H           -2.22541495309816       -1.53723161356606        2.28079968943396
H           -2.53153866792365        0.75537499220735        1.91847446309578
C           -2.45155082817179       -0.92380761146767        0.34753330585256
H           -1.77783110014058       -0.48652860856410       -0.40186370604792
C           -2.95039106543564       -2.27706314741779       -0.15158433580136
C           -3.59206015911224        0.06448426422325        0.53386201623690
H           -3.58433765703480       -2.74684328959591        0.59647386608893
H           -3.53472259845131       -2.13427446203269       -1.05366650944310
H           -2.11009805035242       -2.93449052878815       -0.36573385101039
O           -3.37184927670875        0.99946668526591        1.48136538001341
N           -4.62115460305355       -0.02281343314161       -0.17992943051791
H           -7.83805049399037        1.77581843128722        0.78174409275132
C           -5.69976641605914        0.92682338909488       -0.05299323428201
H           -5.53532753647717        1.63395837047233        0.77541401004196
C           -5.77666475430965        1.68372915091103       -1.39620334037424
C           -6.96854137505889        0.15263822704167        0.21191047085831
H           -4.79568765191475        2.13387197021757       -1.56589380666961
H           -5.93182453452054        0.93038558382425       -2.17057714994304
C           -6.84926548050444        2.77104743726891       -1.51613070543261
O           -8.04628393994493        0.84170529725877        0.65753564998535
H           -7.83590413467913        2.33353254255667       -1.32897184945782
C           -6.60758415906290        3.92425515405927       -0.54178829211706
C           -6.85322814516139        3.30926948028071       -2.94724020794857
H           -5.64365074520989        4.38614170881556       -0.74478069640194
H           -7.37934815326607        4.68254475862223       -0.65582133716966
H           -6.60747752023379        3.59933504931517        0.49716371938748
H           -7.05680435868136        2.51173914090692       -3.65743281675980
H           -7.61717335889052        4.07473536253166       -3.06305866786953
H           -5.88821143429315        3.74798746589514       -3.19092022618221
N           -6.96521159773445       -1.09393096286199        0.06835733239623
H           -5.96045833484919       -2.55201603191861       -0.07962805599435
C           -8.09724014857533       -1.94095991972338        0.33689539471826
H           -8.62825001307310       -1.65181281717140        1.25330648785480
C           -9.08950108359795       -1.94621849333037       -0.83078714836438
C           -7.53425978860685       -3.36263896105882        0.51183164834196
H           -8.56995575636143       -2.18609886141690       -1.75613488490250
H           -9.85635019840937       -2.69353490483806       -0.64754629989475
H           -9.55317550609053       -0.96752424484150       -0.92728948132515
O           -6.25394648334064       -3.46308196381069        0.18144915162186
O           -8.19587196797797       -4.28710314037380        0.89670742860595
