42
 energy: -62.486133507918 gnorm: 0.000480517769 xtb: 6.7.1 (edcfbbe)
N           -2.34997394212484       -0.61949870663157       -1.95982556488093
H           -2.42823568137758        0.28522065725694       -2.41340449054194
H           -2.39112798899489       -1.33148142503801       -2.68039374956012
H           -1.33856877141290       -0.27807050297291       -0.35034705576813
C           -3.43393251665274       -0.80867012103737       -0.99240356673250
H           -4.41725243138942       -0.52931066992293       -1.39240470636990
C           -3.44401796948450       -2.27804800743227       -0.56582175618572
C           -3.08245545411441        0.08597473507021        0.20510785522880
H           -2.45544377639838       -2.56832048985068       -0.21521218673451
H           -4.16087962575146       -2.45167726262196        0.23040338391553
H           -3.71492087016766       -2.90724005994027       -1.41174898933385
O           -1.76609364813436        0.14355855482031        0.42473268221596
N           -3.81419108836002        0.78938205463696        0.95199573909766
H           -5.17716799100346       -1.08909506679381        2.32147739941469
C           -5.25302359505695        0.88008636992873        0.98560037164238
H           -5.49118832690935        1.16256788309857        2.02158229991585
C           -5.70217008260779        2.01212542943216        0.04762887074758
C           -5.94654889930463       -0.42884165360636        0.69143698204757
H           -5.05990270733096        2.87184623937427        0.24670089931825
H           -5.52096636073310        1.68922445419709       -0.97884387509048
C           -7.17072036983488        2.42179292557551        0.20179537315206
O           -5.76716687142747       -1.39816215375975        1.62103763433899
H           -7.78626970088082        1.51736621549510        0.19890144973275
C           -7.41079245535700        3.17742518648287        1.50666183959555
C           -7.58142817730163        3.29356308021776       -0.98411087207748
H           -6.78633273534766        4.06706739306466        1.54974014477801
H           -8.45139856232300        3.48603158002435        1.57549339583896
H           -7.18738045452334        2.55860524826323        2.37173534022561
H           -7.46361673012832        2.75573067510471       -1.92200135403576
H           -8.62218049505336        3.59467167795738       -0.89235247082127
H           -6.96810660136689        4.19114721843864       -1.02335738457400
N           -6.61049230564436       -0.60011900698651       -0.36259231511524
H           -6.99712353322884       -0.09762552372926       -2.10791902748504
C           -7.21250393026727       -1.86525824879047       -0.71047585670454
H           -6.68692887382164       -2.72497084052401       -0.27876368074138
C           -8.68223034510302       -1.90151735432721       -0.27662837190169
C           -7.16799526373907       -1.95407675057917       -2.24166026309552
H           -9.21695968900685       -1.04841655433186       -0.68994564728370
H           -9.14296915985961       -2.81843014282088       -0.63341522397681
H           -8.74576468230455       -1.86612796584982        0.80841012057409
O           -7.08203099112173       -0.76238313547914       -2.82808585089715
O           -7.21771411291712       -2.98565075099225       -2.84875370282796
