42
 energy: -62.486133520186 gnorm: 0.000478740232 xtb: 6.7.1 (edcfbbe)
N           -1.81800879491026       -1.35130189008478       -0.55076791192336
H           -1.25580522016584       -2.18775867750471       -0.45262976079697
H           -1.24103914356724       -0.55947464275379       -0.28052969618646
H           -3.02058983639090       -0.58115508331068       -1.82310198590530
C           -3.00411780469981       -1.41564420073370        0.30387475216396
H           -3.45400649795717       -2.40708969592220        0.16256511930554
C           -2.73633661354437       -1.19888186343553        1.79064380410970
C           -4.01409535140449       -0.41047017206820       -0.24352128744920
H           -2.25532300228779       -0.23567258222828        1.95069508131250
H           -3.67906369516393       -1.20478787778411        2.32572321580362
H           -2.09439009837493       -1.98546432588419        2.18047733310893
O           -3.84187401897864       -0.12341938491023       -1.54693135510450
N           -4.90986832435105        0.00890992690228        0.52653058977393
H           -8.34139265129381        1.56392856255373       -0.18184413952844
C           -6.00366174407912        0.88732709061629        0.19557082103717
H           -6.17598880062967        1.47138304836926        1.11129329271537
C           -5.73554561939776        1.84599086973493       -0.98511399807228
C           -7.22273918099879        0.00942149233489       -0.00404019344844
H           -4.72066111449970        2.22448782910657       -0.84073005882993
H           -5.73503589281346        1.26454802554850       -1.90836526483717
C           -6.66436385924812        3.05637605449027       -1.16219278613257
O           -8.41776074558388        0.60269436680240       -0.21427026990394
H           -7.64985183503125        2.72665872009177       -1.51370434527892
C           -6.82968164644575        3.87451193913849        0.11854782103174
C           -6.08418367022223        3.94757351247055       -2.26294239166776
H           -5.85508556331425        4.16042101658520        0.50827509293137
H           -7.39149135165190        4.78268152701719       -0.09019433963223
H           -7.36014139896790        3.32979321399525        0.89785171111998
H           -5.94167250389982        3.38021860298857       -3.17941517737702
H           -6.75375732326167        4.77840793703375       -2.47400595259736
H           -5.12193012359924        4.35168487343167       -1.95658080292579
N           -7.09177126079785       -1.23438909929836        0.11834509652136
H           -6.07275430505430       -2.53544932084018        0.75368336657907
C           -8.17762804335818       -2.17399942652363        0.00776764092285
H           -9.04365789154584       -1.86748464476482        0.60975780738051
C           -8.63093386464796       -2.37443429394874       -1.44140683392255
C           -7.64839357509438       -3.51100909083530        0.55742020633144
H           -7.77223808800865       -2.60767487194988       -2.06775548795510
H           -9.33685982467204       -3.19919184648192       -1.48290205332409
H           -9.10613578446122       -1.46987205509347       -1.81233196952325
O           -6.37068369690632       -3.46645557956633        0.91370063457551
O           -8.32567150299550       -4.49796369411167        0.64148960959265
