42
 energy: -62.486133525070 gnorm: 0.000477761012 xtb: 6.7.1 (edcfbbe)
N           -0.76388980602832        0.01256858076454       -0.58773733527094
H            0.02942985122642       -0.28591688324365       -1.14187621369622
H           -0.55334379661452       -0.19154482716594        0.38535834480490
H           -1.93332912217389        1.53925168231627       -0.44586544406172
C           -1.98108801965217       -0.68841964778023       -0.99195202173348
H           -2.04056007297799       -0.62627095051471       -2.08680619245854
C           -2.04513023065401       -2.15523583321191       -0.57169618541700
C           -3.15866275255505        0.11920223713797       -0.45509784348611
H           -2.02662443574600       -2.23829578099529        0.51315866007006
H           -2.96234231677074       -2.60196388885202       -0.94028928701680
H           -1.19751986242683       -2.70083595815621       -0.98181238820049
O           -2.88972035757222        1.42107885484349       -0.27179876402367
N           -4.24593097916190       -0.46909148563179       -0.23611278390268
H           -5.18929863183235       -2.14985349903177        0.36488580480553
C           -5.48394418010247        0.13919852371102        0.21217623490113
H           -5.43125032601370        0.23902679945314        1.30644897448027
C           -5.83680828384284        1.49463381704656       -0.40837653077225
C           -6.52566066094807       -0.92263051856828       -0.09940379946218
H           -4.95448653649492        2.13287709301288       -0.38761120196673
H           -6.10725966527633        1.32063609268405       -1.45117479484607
C           -6.98158351050143        2.21672552618044        0.31305855518385
O           -6.14986966089548       -2.17588707672278        0.20993869854687
H           -7.76869276790908        1.49159588943897        0.53733674026537
C           -6.50156603888172        2.84196363335513        1.62157402034451
C           -7.55769964248504        3.30151680442615       -0.59529738289733
H           -5.71802789959153        3.57163851910025        1.42718373889734
H           -7.32379458903914        3.34755114958240        2.12256517993968
H           -6.10696263463874        2.09004494317248        2.30082343805100
H           -7.95109557485128        2.87350557748326       -1.51399951196842
H           -8.36511425808925        3.82900532167985       -0.09297739293350
H           -6.78661550102910        4.02416638406022       -0.85472196636317
N           -7.60627307901779       -0.62949766339405       -0.67292423406286
H           -8.60537840357704        0.55318532026628       -1.60530883378097
C           -8.58442391701176       -1.63441976875437       -1.01972122417168
H           -8.11700861289171       -2.52384266620064       -1.46185869226536
C           -9.41049761760713       -2.06578037024612        0.19699048784944
C           -9.53058452341918       -1.00237600087370       -2.05152303532074
H           -9.84590134332194       -1.19273095696393        0.67942543797218
H          -10.20836675650684       -2.72787360775820       -0.12715963268802
H           -8.77446998516965       -2.58535557863311        0.90930057737201
O           -9.35690595876822        0.30592839686370       -2.19548670623125
O          -10.35793880038590       -1.62950405099849       -2.65270048356806
