42
 energy: -62.486133513495 gnorm: 0.000479293808 xtb: 6.7.1 (edcfbbe)
N           -1.70007000593514       -0.90357715931663       -2.11351347560617
H           -0.93325978536090       -1.52137839726969       -2.34874746808052
H           -1.34770112804552        0.04920200525679       -2.14412385691029
H           -3.53937691072506       -0.57980342961739       -2.57974106878172
C           -2.22399204158078       -1.19742347360503       -0.78175294342811
H           -2.35653597368295       -2.28575268779708       -0.71811327348251
C           -1.33818224942372       -0.73048537178763        0.37206861363158
C           -3.61582109965710       -0.58250749887400       -0.70413009605525
H           -1.17058987481022        0.34231701936804        0.30364659163742
H           -1.83106236668897       -0.93845443429921        1.31569405553122
H           -0.37810325338545       -1.24205875477771        0.34475591294697
O           -4.19417055075473       -0.35122106134231       -1.88812443242603
N           -4.13257531180844       -0.37003876162798        0.42609815223646
H           -5.29546994442876       -2.14192023557060        1.00909317121902
C           -5.47734997499173        0.17497664304772        0.55529840175486
H           -5.60377980288825        0.34262960186781        1.63512971218531
C           -5.69974779849312        1.49440749812887       -0.19111297263919
C           -6.46249664051790       -0.90186409498978        0.15542354606349
H           -4.78412220753050        2.08541332238372       -0.11170843003554
H           -5.86686500165754        1.26784062303523       -1.24371950791148
C           -6.87687401168177        2.31044730425889        0.35617908225116
O           -6.16242244790535       -2.14935253253702        0.57703679070959
H           -7.70739441829175        1.62707947919623        0.55477198983363
C           -6.50371985900097        3.02344670898336        1.65459815948372
C           -7.32411632291603        3.33552985542958       -0.68459588941892
H           -5.70142320577421        3.73712355592610        1.47710303653730
H           -7.36081307611271        3.56497336743512        2.04814187383977
H           -6.17222014008767        2.31945646385223        2.41389601830526
H           -7.64635705221972        2.84722484442360       -1.60085915507323
H           -8.15394497019960        3.92610997291124       -0.30380467872334
H           -6.50578519383702        4.01175285550421       -0.92422330983925
N           -7.48644501740189       -0.62201748155092       -0.51700025256851
H           -8.32339827994366        0.52604188824723       -1.62107848434124
C           -8.44551712393917       -1.62300434822262       -0.92146503897913
H           -7.95540956484691       -2.53415735781611       -1.28795982451023
C           -9.39179526094327       -1.99820742318968        0.22380873720098
C           -9.27361063957683       -1.01374357759317       -2.06427005199183
H           -9.85168056660639       -1.10147248797865        0.63463259835887
H          -10.16946921634753       -2.65524373497675       -0.15508116054963
H           -8.83886656460678       -2.50617046427369        1.01006973017783
O           -9.03061603406591        0.27518496428345       -2.26349871046375
O          -10.07304036754183       -1.64332900848779       -2.69988695939702
