42
 energy: -62.486133511684 gnorm: 0.000480139178 xtb: 6.7.1 (edcfbbe)
N           -1.31316794599025       -0.35893696687346       -1.83402766489134
H           -0.65686340544400       -0.97670666786252       -2.29573065954075
H           -0.78247338056733        0.23977045447173       -1.20714136727747
H           -2.81145736878262        0.76255182481137       -2.28050862613843
C           -2.30396182403384       -1.11945211547836       -1.07545859858943
H           -2.68509654827576       -1.90633601941063       -1.73984084739351
C           -1.77225422279865       -1.75902345173680        0.20491803462529
C           -3.48073686664061       -0.18381799049562       -0.80736962786680
H           -1.40103268765389       -0.99216015643811        0.88142799564950
H           -2.57160206355113       -2.29761305005901        0.70170668777656
H           -0.96446264333889       -2.45089363240443       -0.02588402380191
O           -3.59296222092021        0.81576817031397       -1.69293824285862
N           -4.22780168690456       -0.43343981803968        0.17039047482025
H           -5.61962212863053       -1.83341403848653        1.63829239357588
C           -5.43992064204884        0.26770869208651        0.54733979306079
H           -5.35228826822941        0.42989328384495        1.63202799361678
C           -5.75922725878503        1.59347078774419       -0.14480765429255
C           -6.50698101599684       -0.78552105822946        0.31964977848382
H           -4.89356256487362        2.25137948669982       -0.05316830114207
H           -5.92008560516622        1.39709622852182       -1.20392596690205
C           -6.99255164771697        2.29318695721491        0.43953941441468
O           -6.43738061307043       -1.86551090436264        1.12450206481867
H           -7.78434423690739        1.54974904062296        0.57332527305090
C           -6.68722478768568        2.93535063123532        1.79155373318058
C           -7.48924921618613        3.35696427553173       -0.53783057936876
H           -5.90283943809938        3.68247957909266        1.68704852372670
H           -7.57455889430054        3.42575130033288        2.18551684594749
H           -6.36255671717691        2.19641359840698        2.52027682032012
H           -7.76970260744118        2.90775163369713       -1.48724613883301
H           -8.35797014232756        3.87105082374770       -0.13293839563607
H           -6.71037519324715        4.09373608799290       -0.72257294266104
N           -7.31463709530571       -0.68201941497116       -0.63777558306596
H           -7.85232067171984        0.17428535527409       -2.12622299498336
C           -8.28499784024004       -1.70558755571353       -0.94813058369554
H           -7.83537808518627       -2.70668297363103       -0.94460734360724
C           -9.46431446720925       -1.69038359651387        0.03041525401927
C           -8.81907985630684       -1.40019566620496       -2.35646681083143
H           -9.90154255252357       -0.69449860250077        0.07042914125990
H          -10.21851627165650       -2.39607365144306       -0.30615586574320
H           -9.12403781761662       -1.97003638503778        1.02429080294941
O           -8.44514341022467       -0.21235460547764       -2.81476705055300
O           -9.52190935263145       -2.15572567752428       -2.96820000378462
