42
 energy: -62.486143125540 gnorm: 0.000732958875 xtb: 6.7.1 (edcfbbe)
N           -0.77219792061498       -0.25821302051664        0.15989820928114
H            0.12733040006639       -0.26376026205035       -0.30468148428535
H           -0.76172636604810       -1.00023274339599        0.85414856019484
H           -1.98433817963293        0.99115331901249        0.98928898798127
C           -1.85854715544663       -0.48034216797900       -0.79300800094909
H           -1.66644166792671        0.15780497683081       -1.66461996356407
C           -2.01748640283209       -1.92660076817473       -1.25822472963752
C           -3.13440266283678        0.04426190101338       -0.15020885947945
H           -2.16657502603600       -2.58391341385774       -0.40295936522002
H           -2.88108213163983       -2.00233961591318       -1.91058760081844
H           -1.13072051544818       -2.25135563213848       -1.79842836135056
O           -2.95023088124577        0.92509828767274        0.84455265857928
N           -4.25353272309351       -0.33627809606378       -0.58342442545943
H           -5.11811338720501       -2.15195902389555        0.08481267814181
C           -5.48360658056410        0.16923318923712       -0.00118679946591
H           -5.36106604130162        0.31355906952565        1.08433152371497
C           -5.88593946902724        1.50378728193514       -0.64028898547542
C           -6.51555281150219       -0.91784192787023       -0.21172097980643
H           -4.99219826742820        2.12693186689854       -0.71417273971362
H           -6.23869293300173        1.29628065517505       -1.65104838251321
C           -6.96094271586547        2.25955352532308        0.15001532432214
O           -6.08679307373988       -2.17021168924520        0.04345309886590
H           -7.70766343395728        1.53840844481670        0.49375473695069
C           -6.35689503901116        2.96154761540423        1.36484836369801
C           -7.64668370144369        3.28457668146032       -0.75144903549447
H           -5.65582671550340        3.73048359030536        1.04669382210096
H           -7.13739090455058        3.43364672259583        1.95687367047937
H           -5.82440305506951        2.26119719964446        2.00319396035420
H           -8.13150143935201        2.80129383247098       -1.59595687869889
H           -8.40174035546850        3.83383001436077       -0.19419141373461
H           -6.91886611947024        3.99740439294609       -1.13399310389616
N           -7.66191406624070       -0.64846834987972       -0.65363852510766
H           -8.75971853869408        0.50743155673475       -1.49984084661572
C           -8.65113737270067       -1.67185955480507       -0.89767585606922
H           -8.21414108095784       -2.55825699494353       -1.37532629981716
C           -9.35005863171800       -2.10265099486352        0.39626308485159
C           -9.70224862090333       -1.06394845576396       -1.83926304106332
H           -9.75761161568332       -1.23208114731748        0.90661448498387
H          -10.15993165576786       -2.78574213054256        0.15638299079673
H           -8.63929931515650       -2.59873779703458        1.05247347892202
O           -9.56149357067937        0.24449770360274       -2.01246554838990
O          -10.57480951696725       -1.70921390409312       -2.35030340796486
