42
 energy: -62.486133514482 gnorm: 0.000479861359 xtb: 6.7.1 (edcfbbe)
N           -0.97119784604939       -0.45941704379383       -0.95982184081469
H           -0.31807061075751       -1.04742946396355       -1.46275821048385
H           -0.58787605341915       -0.29785541264327       -0.03253111215939
H           -1.97970834354374        1.14074653641795       -1.22069243110735
C           -2.28015595447822       -1.10259519718203       -0.85135450259448
H           -2.53146953770535       -1.50225355759265       -1.84178763792828
C           -2.35338641441457       -2.22896632185561        0.17641769930668
C           -3.30638516154588       -0.00945566460523       -0.56209005471701
H           -2.07136478510070       -1.85784221259988        1.16002291949130
H           -3.37173016882648       -2.59816021048667        0.22713394991250
H           -1.68558654408135       -3.04270322052045       -0.09959562827809
O           -2.90045303295857        1.22794049964375       -0.89752035236775
N           -4.40628022948645       -0.34400462089424       -0.06140744002254
H           -6.58365830805903       -0.48130082253540        2.17693765882769
C           -5.51626114977298        0.53560388731931        0.23230627559727
H           -5.35742278012955        0.93944831844847        1.24358479512241
C           -5.75114233680677        1.69078525517142       -0.75066786920075
C           -6.72570164504343       -0.37822626685621        0.23900977145060
H           -4.86059072220239        2.31712433981257       -0.78608721919770
H           -5.90436596248672        1.24285638187006       -1.73291255879800
C           -6.96516863094216        2.55653387633566       -0.39568639270624
O           -7.18761329071337       -0.76932757033421        1.48233322844278
H           -7.83512632979589        1.90706594756964       -0.24994532253122
C           -6.73540717262547        3.36783969225382        0.87847194668761
C           -7.26651176140590        3.49848491675418       -1.55958175627648
H           -5.84753087699052        3.98875334293513        0.77608838269339
H           -7.58730124457039        4.01695481531658        1.06804456191556
H           -6.60819808520906        2.72651612016171        1.74777442346332
H           -7.47776854137845        2.93101558325360       -2.46206985712904
H           -8.13124903035015        4.11853208872570       -1.33505314182582
H           -6.41555438447170        4.14918421212277       -1.75048513353018
N           -7.20940808332897       -0.76128718000343       -0.84628308802360
H           -8.95107484141516       -0.67453569888162        1.05766113683483
C           -8.30601496051130       -1.67247344357348       -1.04315693647796
H           -8.32597151792378       -1.87196400964011       -2.12087141338086
C           -8.17349538248479       -3.00307570948698       -0.28957544918009
C           -9.66099094151116       -1.03903904026586       -0.69177730108190
H           -8.22363310174652       -2.85965539755040        0.78748438591540
H           -8.97370077240623       -3.67279284704500       -0.59486087665606
H           -7.21630411278202       -3.45809870632135       -0.53380390364791
O           -9.77171443387461       -0.55316341370314        0.54465679733175
O          -10.57364617638556       -1.00178856523315       -1.46661541980268
