42
 energy: -62.486133511752 gnorm: 0.000479683271 xtb: 6.7.1 (edcfbbe)
N           -1.89531707490977       -2.28521251047656       -1.03771721199682
H           -0.95554351606446       -2.64900184365196       -0.93984978045809
H           -2.06774994321967       -2.14412098488567       -2.02932163184325
H           -3.68806789338698       -2.64112717385372       -0.48696279783412
C           -2.04731209943949       -1.01937302659668       -0.32310920796020
H           -1.59033489111446       -1.14553091679491        0.66693150740257
C           -1.41680827097995        0.18518775690671       -1.01810289288668
C           -3.54082609167795       -0.80669966367916       -0.09559205071537
H           -1.83607630957813        0.30141299182137       -2.01548717752945
H           -1.63391905389902        1.08291763491960       -0.44963065937908
H           -0.33900772987906        0.05807478655671       -1.09839106102408
O           -4.28772619304990       -1.92030817445839       -0.20351129171187
N           -3.95507456540885        0.34587313734182        0.18099578502997
H           -5.18668329479721       -0.95548633576044        2.17080320139612
C           -5.33872137845029        0.70082842475174        0.41232845909311
H           -5.32804010443829        1.31349680638681        1.32628091684550
C           -5.79168492617110        1.57335375445885       -0.76710784187004
C           -6.26766293607258       -0.46829566935388        0.65977900326401
H           -4.97107754706663        2.25381776500730       -1.00186460553931
H           -5.94162591538203        0.91607782574962       -1.62442452822073
C           -7.06698740009062        2.38055679697944       -0.50088934917122
O           -6.03266632463580       -1.19717145204585        1.77467518896003
H           -7.79829043740684        1.72588539464325       -0.01869913812882
C           -6.79186915403236        3.57133759959021        0.41498093330754
C           -7.65092499925179        2.86981232883876       -1.82511227357160
H           -6.07020167905601        4.24378634592051       -0.04429422728474
H           -7.70910755952720        4.12669947020705        0.59666971213265
H           -6.39793365835413        3.25102263638250        1.37620438330140
H           -7.91419786926242        2.03278035604726       -2.46701526129980
H           -8.54775722560156        3.45914175665098       -1.64966090505840
H           -6.92942992946972        3.49333037056780       -2.34912366418569
N           -7.24959050698282       -0.67529186017489       -0.09789962892195
H           -8.04877547314802       -0.39595994391977       -1.67355528702685
C           -8.17051732103657       -1.76777821265899        0.10877282748690
H           -7.64792691118031       -2.69614436704408        0.37054684932568
C           -9.19571835352513       -1.44936253911857        1.20263118076196
C           -8.92238360854209       -1.97173655857717       -1.21557740424687
H           -9.69506480549428       -0.50756466913981        0.98241004516294
H           -9.93643778851822       -2.24312745543334        1.24090565184861
H           -8.69806075637081       -1.37123534211708        2.16590163101839
O           -8.70269782464802       -1.00396724792533       -2.09766144682491
O           -9.65039193673139       -2.90292372640965       -1.42132094222171
