42
 energy: -62.486133512629 gnorm: 0.000479861826 xtb: 6.7.1 (edcfbbe)
N           -1.04814288709605       -1.39918827507842        0.66979303594464
H           -0.98287762944989       -1.06657676558748        1.62618761618759
H           -0.10629121506888       -1.53404365637956        0.32137554197703
H           -2.67205171263844       -2.37468512998451        0.64262259479155
C           -1.78030170893518       -0.44516889608210       -0.16172762509931
H           -1.54314647387845        0.60576533074574        0.04981684958661
C           -1.50993104328563       -0.73334559428018       -1.63888024022183
C           -3.26480727560121       -0.66523746318764        0.10273829032662
H           -1.74069937574118       -1.77216846507023       -1.86685887694247
H           -2.12927761461820       -0.08872295556031       -2.25504297473326
H           -0.46453647976167       -0.54826828858361       -1.87634188137247
O           -3.54144108131145       -1.94116830937234        0.49835555059380
N           -4.04903746590816        0.28351462905653       -0.08202894625105
H           -5.13186637568081       -2.03809972171020       -0.12877722211494
C           -5.46516054481690        0.49255600890165        0.02267282609789
H           -5.61049368222174        1.06204970836699        0.94773073805091
C           -5.76089281621200        1.43264987724954       -1.17809454713146
C           -6.46404567807211       -0.65680978058504        0.03208696394870
H           -4.93949722205747        2.15130526176315       -1.19578192551027
H           -5.69446616693994        0.83385772999254       -2.08976928550176
C           -7.08651474221688        2.19471116136551       -1.18158296577095
O           -6.09111600856247       -1.91481881691711       -0.22770983160577
H           -7.90557130055237        1.47637181387195       -1.25494454312558
C           -7.27029427024377        3.03378733597937        0.07938961882827
C           -7.13490724819694        3.09567444627479       -2.41587766037596
H           -6.44180311418319        3.72991151431569        0.19495686668471
H           -8.19294667042577        3.60516686491240        0.01591991296577
H           -7.32287696105528        2.40650904522956        0.96526528227992
H           -7.01087904307219        2.51294272407416       -3.32563105981898
H           -8.09124385857496        3.60973741051233       -2.46815524764497
H           -6.34474686779391        3.84290598985145       -2.37600430992557
N           -7.68093394543739       -0.34250535428503        0.18287036750578
H           -9.01364477381762        0.87984311482212        0.50088632388245
C           -8.72465634516729       -1.34383475514284        0.13242941876699
H           -8.64127916760832       -1.96765982280722       -0.76633295557002
C           -8.72291848016052       -2.25610157693543        1.36572460806633
C          -10.06922546953206       -0.60556044502980        0.10116338872942
H           -8.75548969760359       -1.65474741556709        2.27248053779913
H           -9.59728026792271       -2.90042613845995        1.33428703886830
H           -7.82446410944564       -2.86748709250583        1.37594983322234
O           -9.97350868737125        0.68671629520529        0.39179197181386
O          -11.11092578399887       -1.15137698194607       -0.13801851528741
