42
 energy: -62.486133505744 gnorm: 0.000481236918 xtb: 6.7.1 (edcfbbe)
N           -0.88176417292817       -0.41500439337320        0.56590583364726
H            0.06821065764874       -0.52606450220361        0.23354886449655
H           -1.03328470434435       -1.10443642697714        1.29715230174875
H           -2.08685094093984        0.96213448041081        1.15935326988765
C           -1.84502033069507       -0.61694733879480       -0.51509701096603
H           -1.48726750233525       -0.04529381970837       -1.38155118438167
C           -2.04428262387833       -2.07627057126838       -0.92175562822910
C           -3.14948853564357        0.03053929195877       -0.07226731492065
H           -2.44936422086742       -2.64650551737590       -0.08833259926726
H           -2.73962457408321       -2.13909406899478       -1.75189096971688
H           -1.09494321477999       -2.51526486062000       -1.22273437636400
O           -3.02670854345493        0.95842743666885        0.88530104195020
N           -4.23537315915308       -0.30312737545080       -0.61569932886750
H           -5.28403025187717       -1.43460560451820       -1.68961234884866
C           -5.48634530485825        0.31365122026634       -0.22320032254392
H           -5.51624387155152        0.51561899503416        0.85224829446959
C           -5.66714730719216        1.63651445283364       -0.99353016300801
C           -6.57540611702990       -0.67012669907348       -0.59191816281262
H           -4.82579232695229        2.28137908039575       -0.72986583254706
H           -5.59920017873520        1.41560793113175       -2.06234754848567
C           -6.97820903416770        2.37462301026927       -0.71283951051183
O           -6.23920498450853       -1.57031380383475       -1.52289216525641
H           -7.81276492148742        1.71496103631999       -0.96723967824311
C           -7.10215528342375        2.77598232151180        0.75443454351631
C           -7.05571365163478        3.61519317287364       -1.60180032652885
H           -6.25886395732348        3.39700914503465        1.05015668180772
H           -8.01766837412159        3.34110334599866        0.91003461354892
H           -7.13199325716170        1.90149750143537        1.39812497524212
H           -6.98945608467665        3.34376143653481       -2.65294478218639
H           -7.99716659543685        4.13448481769820       -1.44224837592122
H           -6.24226240725853        4.30032397321105       -1.37124667455035
N           -7.70705400677357       -0.58903059194820       -0.04089981580663
H           -8.95142407282752        0.43081471811545        0.80973712596573
C           -8.78635817250917       -1.48192245331025       -0.40313092859549
H           -8.81249792774808       -1.67862287872057       -1.48268125760440
C           -8.68220437284021       -2.81826831250779        0.33964480715134
C          -10.09997786135598       -0.80003438144048        0.00577020773443
H           -8.61083140678278       -2.64188595090465        1.41108864923862
H           -9.56726751804246       -3.41367280831777        0.13409132431435
H           -7.79761440223157       -3.35660683554927        0.00848677398700
O           -9.92540461854932        0.29546078492571        0.73525567312023
O          -11.18017112570966       -1.22801481613423       -0.29367368564145
