42
 energy: -62.486133513416 gnorm: 0.000479751501 xtb: 6.7.1 (edcfbbe)
N           -2.14818477792927       -0.61940797746187       -1.68882549361164
H           -2.12743935486560        0.32596070939344       -2.05796473105318
H           -2.10417365136312       -1.25966094576248       -2.47383969266891
H           -1.41333486241608       -0.52124911964732        0.13557424858294
C           -3.37435725427592       -0.84205628842061       -0.91555887845845
H           -4.29193797996809       -0.53499250994181       -1.42915817745713
C           -3.46963798293823       -2.32907917260777       -0.56941474090797
C           -3.20419941011126       -0.05697777911103        0.38544137542520
H           -2.56950093237845       -2.65635885714177       -0.05280063317626
H           -4.32796043550196       -2.50205332220744        0.07093106374786
H           -3.58630039257279       -2.91807696924205       -1.47670814484803
O           -1.95104117891912       -0.12877902037210        0.85288588052070
N           -4.01531201919485        0.62270224172493        1.06646038130846
H           -7.19552161465662        0.29455076439928        2.30317386327976
C           -5.38772459745609        0.96071850541705        0.83408262111474
H           -5.68581834894719        1.47503681702340        1.76100394414169
C           -5.51907074190781        1.96295304673534       -0.33357017667927
C           -6.36136529817782       -0.17728812649073        0.60608193320129
H           -4.75385339616692        2.73028165079094       -0.20258780130445
H           -5.31176478189354        1.42368141483011       -1.25807172007543
C           -6.90002059654655        2.62161162021544       -0.43869766200602
O           -7.34839570343301       -0.30614244947492        1.56257379731740
H           -7.67124671762578        1.84615370540589       -0.36759290819741
C           -7.12605162498089        3.65026154330885        0.66749993067206
C           -7.03765068812746        3.29399500338485       -1.80370185874752
H           -6.38031113823616        4.43963984561720        0.60362929810663
H           -8.11086200555702        4.10015408503759        0.56509846782322
H           -7.06265255922611        3.20320453981831        1.65669761776703
H           -6.95283910916141        2.56069679687876       -2.60197409208235
H           -8.00567618619500        3.78110281084758       -1.89106049850899
H           -6.26107719882697        4.04431097533525       -1.93682538732972
N           -6.27120604226902       -0.91774269567639       -0.39788414399757
H           -8.73333509172666       -0.60144182381200        0.38212822079745
C           -7.14456410951280       -2.00635468487266       -0.75903127055947
H           -6.64243506625325       -2.51547134638828       -1.58990165317339
C           -7.43599992409695       -3.02513360313952        0.35001568144671
C           -8.47487383173655       -1.47060919127424       -1.31350594893058
H           -7.98677497879939       -2.58006749412715        1.17535513091657
H           -8.02014705464364       -3.84416407000309       -0.06255552711565
H           -6.50050003633365       -3.42329131745294        0.73754642684436
O           -9.18060808287180       -0.70932966303122       -0.47782772153737
O           -8.86046488106680       -1.72326927411052       -2.41816705234554
