42
 energy: -62.486133510919 gnorm: 0.000479851589 xtb: 6.7.1 (edcfbbe)
N           -1.48295714427850       -0.73610683700807        0.99796450634036
H           -0.55913105975005       -1.08898060936496        0.78050005534185
H           -1.81657777900141       -1.23847726769407        1.81620708871584
H           -2.42926861103192        0.91094262008582        1.25410831549489
C           -2.40250606569836       -0.94933669522903       -0.11953959406535
H           -1.88303188614948       -0.63978936095716       -1.03543021907560
C           -2.89210988624234       -2.38708492496521       -0.27709387071323
C           -3.57023939758592        0.00773016242648        0.07182515268678
H           -3.37521811655430       -2.71854484541464        0.63979946403684
H           -3.62032129510846       -2.43165556923592       -1.07946131769418
H           -2.06077003560710       -3.05228418216521       -0.50204062845870
O           -3.32625636080783        1.04853854500096        0.88662974197852
N           -4.65620555978268       -0.20794412669517       -0.52345050455826
H           -7.06677565441796        0.48927326250832       -2.44728646669874
C           -5.77688891854750        0.70037239736196       -0.35178182911359
H           -5.83348101769500        1.02082261473158        0.69674278375062
C           -5.62039478713064        1.93661712637882       -1.24516265967135
C           -7.00252554206689       -0.14197271339644       -0.64235483980860
H           -4.69542932087513        2.43368242976288       -0.94473603510223
H           -5.47958508915570        1.61982224168525       -2.28509077670134
C           -6.77852614305832        2.93891600262187       -1.14447208750505
O           -7.55346426037419       -0.11191937934590       -1.86954960164712
H           -7.73195244815078        2.41783628837255       -1.28928909559056
C           -6.81097753993219        3.61195395919967        0.22580527686392
C           -6.63447450155429        3.99412043326428       -2.24100138830048
H           -5.85952308500107        4.09680673977214        0.43313645182654
H           -7.59456005224131        4.36553666735982        0.25463196103741
H           -7.00980136020932        2.88961438940565        1.01290849631103
H           -6.64448070374131        3.53849696649323       -3.22944111741936
H           -7.45147068340017        4.70957526579428       -2.18920980573485
H           -5.69798108157841        4.53498185767242       -2.12274628523872
N           -7.40656585077890       -0.91153099730102        0.26913414828679
H           -7.34806673040535       -1.44574149849383        1.97643967556057
C           -8.50553632391182       -1.83112205497380        0.08094273321547
H           -9.38136717647083       -1.33304790820122       -0.35358290407002
C           -8.11989456251416       -3.01837020425268       -0.80863545438889
C           -8.88091316946910       -2.36874081164189        1.47084446542943
H           -7.21699824573588       -3.48872222581667       -0.42462350083788
H           -8.92939336807718       -3.74294724352903       -0.80850559709347
H           -7.93677901237513       -2.67788112507368       -1.82408544347081
O           -8.01765421058202       -2.02294119554828        2.41818838147219
O           -9.84613721879603       -3.05252401776966        1.67169744020523
