42
 energy: -62.486133511643 gnorm: 0.000480123476 xtb: 6.7.1 (edcfbbe)
N           -2.53094606472296       -1.44349615084202        1.84205445253091
H           -1.61754876158735       -1.87738949885495        1.89947180819132
H           -3.21565799825846       -2.13640073436360        2.13515571849532
H           -3.48024658518174        0.14685185537662        2.33756910766180
C           -2.82311139926978       -1.02404299943593        0.47155197991791
H           -1.96115060855028       -0.44336927346669        0.11622796481447
C           -3.09931488988969       -2.16964669322709       -0.49945990730479
C           -4.00323498647817       -0.06782472456235        0.55253601652689
H           -3.88306838193815       -2.81134564746534       -0.10345484321700
H           -3.43261380320628       -1.76401630491680       -1.44801125800350
H           -2.20025632881003       -2.76318749826850       -0.65281492891565
O           -4.14672755954000        0.54538433294326        1.74132247661489
N           -4.76027715335110        0.08025585536404       -0.43997609785960
H           -8.10721981463576        1.25082137312944       -1.51234545077780
C           -5.91579225899155        0.94734375923847       -0.36765013059838
H           -5.95546228134971        1.48535887608194        0.59188684279076
C           -5.86439120270034        1.95349210952591       -1.52738095400514
C           -7.12238042745897        0.02386516689477       -0.41455637972148
H           -4.81273961923087        2.17489958447518       -1.71871386541625
H           -6.24727050364862        1.47902266796515       -2.43555817640441
C           -6.60267646507066        3.27135213430039       -1.24173790683313
O           -8.23173623836301        0.39697539247304       -1.07799093819581
H           -7.54233014356060        3.06698439272592       -0.71151645662336
C           -5.75546153411668        4.17746081438253       -0.35023780067047
C           -6.93154784704111        3.98628506776454       -2.55181158344060
H           -4.84508041556924        4.47008218273687       -0.86883525858743
H           -6.30641209169787        5.07793420779863       -0.08866300505458
H           -5.47588905680414        3.66927472132814        0.56934974608534
H           -7.58283466269981        3.38218169227777       -3.18119235504330
H           -7.43170051320529        4.93138826927261       -2.35408646536207
H           -6.01848165846749        4.19237016482586       -3.10578547384402
N           -7.01450040346240       -1.05681423893939        0.21826105251656
H           -5.91890802439328       -2.02640117867299        1.11739981087063
C           -7.99776139434376       -2.10230875928486        0.31507605400397
H           -8.90636175283565       -1.74820699281403        0.81876467807186
C           -8.38172464620880       -2.71146906873947       -1.03627276415961
C           -7.35233172957200       -3.19535067245975        1.19138555659473
H           -7.48315016395413       -3.00055351377508       -1.57786595168903
H           -8.99520638715996       -3.59213173406316       -0.86776376296440
H           -8.93642434858365       -1.98968987136293       -1.62947623473082
O           -6.09418848147652       -2.92126937786288        1.51925463240661
O           -7.92207270554093       -4.19669557574238        1.52482536088643
