42
 energy: -62.486133514056 gnorm: 0.000479721497 xtb: 6.7.1 (edcfbbe)
N           -1.00050365903086       -0.49691333725558        0.43253740811745
H           -0.13228991692282       -0.90467341379746        0.10740520352608
H           -1.14794837467061       -0.81584397116537        1.38642533668361
H           -1.93886120274440        1.18991327257797        0.52020286223968
C           -2.12137547156106       -0.91944342913970       -0.40611928040322
H           -1.82065553107174       -0.75889736684804       -1.45045931631629
C           -2.54628685013984       -2.37432195193004       -0.22129123842751
C           -3.27229681318594        0.03856379130118       -0.13077444610136
H           -2.81762066424502       -2.55481093907927        0.81669615434696
H           -3.41429829935303       -2.58006016214148       -0.83804543252907
H           -1.73637411810629       -3.04566356016275       -0.49967095923751
O           -2.90369883683130        1.23292127472011        0.36329282357131
N           -4.44978744026508       -0.32945466968176       -0.36803858320901
H           -6.01555191416780       -0.28560829569943       -2.38522936221671
C           -5.59851948559412        0.53394222266641       -0.17812210358354
H           -5.72631274364353        0.74070371409780        0.88998438856379
C           -5.50886363311425        1.86216419962365       -0.94930748087795
C           -6.77881775070843       -0.28762541398814       -0.64581014316435
H           -4.74558218539285        2.48007884388559       -0.47530582822612
H           -5.17331749694274        1.66046790604918       -1.97258608876976
C           -6.83305004805129        2.63330790043290       -0.99632470351317
O           -6.82059187760549       -0.59914638655301       -1.95439492146342
H           -7.59129340071290        2.01147746641998       -1.48604940843531
C           -7.33107098330622        2.98288886403755        0.40357794094158
C           -6.64683023363218        3.90459538239927       -1.82338610587918
H           -6.56258259118208        3.51820049177162        0.95718584541550
H           -8.21189366040648        3.61722329794786        0.33844761138145
H           -7.60209521006462        2.08641654043557        0.95461663352714
H           -6.30643124886926        3.66816332686950       -2.82946510514101
H           -7.58513896830147        4.44829048116804       -1.90033920871211
H           -5.91066117392430        4.55480669894852       -1.35552763648321
N           -7.61256937394146       -0.71237911357998        0.19657875312314
H           -8.37726636982475       -0.61847798652851        1.83844131875172
C           -8.72563141617866       -1.55147011119180       -0.19227652806419
H           -9.20304915608845       -1.19794595667443       -1.11456751961222
C           -8.28754374950387       -3.00725173857159       -0.38773812783622
C           -9.75280971886769       -1.50346104718903        0.94759708385438
H           -7.77341545666074       -3.36146427556366        0.50337891627778
H           -9.16293525237510       -3.62539933013798       -0.56561990122680
H           -7.61303707436851       -3.07848987998434       -1.23699228592561
O           -9.29099707288108       -0.92267626685922        2.04922149099429
O          -10.85633483138870       -1.96467290672714        0.85678698006277
