42
 energy: -62.486133501546 gnorm: 0.000481416845 xtb: 6.7.1 (edcfbbe)
N           -0.99903417460971       -0.88648338349782        0.22626128000400
H           -0.12457776626382       -1.13091550179471       -0.22288359498216
H           -1.21194615915754       -1.62044573915315        0.89673968057427
H           -1.87092804327786        0.64871322388835        1.03669418887469
C           -2.07928407401141       -0.78801437816473       -0.75626858552402
H           -1.70806206076759       -0.16930184922044       -1.58371904676664
C           -2.57356225787861       -2.12207125529909       -1.30817336225789
C           -3.20984379055592       -0.00526142883002       -0.10645073850394
H           -2.88823349390524       -2.77050058874225       -0.49287492815918
H           -3.42947457588572       -1.94450411821856       -1.95011260540686
H           -1.78709015710421       -2.61821133798547       -1.87321417701825
O           -2.82430511111122        0.81308729813083        0.89732063784442
N           -4.38377525286743       -0.14436169661265       -0.52678697731006
H           -6.45430536585290       -0.05733598392360        2.12760718665247
C           -5.47378905573133        0.63116934370638        0.01442910517117
H           -5.20355339864371        1.09213391353671        0.97880252933260
C           -5.84257353843176        1.72175474005129       -1.00313021700770
C           -6.64087733940456       -0.30974951065781        0.20157560690386
H           -4.96704052326314        2.35575750147544       -1.15708501314086
H           -6.06777429275024        1.20536352725122       -1.93600457234082
C           -7.03987376508112        2.58310070564331       -0.59046119104984
O           -7.03647802231672       -0.52105932529603        1.51285119404624
H           -7.86872710120416        1.92297597452782       -0.31206263255576
C           -6.71005912167770        3.49059051831402        0.59338027409604
C           -7.48683163446680        3.42701826785678       -1.78232865778789
H           -5.87143947345051        4.13960835439782        0.34928565136918
H           -7.56644307257261        4.11470899678463        0.83814673774435
H           -6.45085305364086        2.91726422668990        1.48034391492455
H           -7.76668793790445        2.78823494855396       -2.61583973099691
H           -8.34554251404777        4.03848184968563       -1.51590824315812
H           -6.68216676421680        4.08474794784454       -2.10459000796228
N           -7.16786661018549       -0.85070392335726       -0.79114183966299
H           -8.81863955772213       -0.53624921089042        1.16979759834760
C           -8.24571417829884       -1.80358061626504       -0.80370461072740
H           -8.31231702344996       -2.15128625796429       -1.84108205993678
C           -8.03456577459428       -3.01281108071635        0.11795441242119
C           -9.60216093580718       -1.16318659813661       -0.47046832837967
H           -8.02504545038801       -2.71962497223746        1.16555897270218
H           -8.83312047436602       -3.73340965112079       -0.04017620382139
H           -7.08178674204565       -3.48034384768286       -0.11990232700381
O           -9.66690733652518       -0.50782948651638        0.68893936769779
O          -10.55293427837466       -1.25949536583995       -1.19238360482733
