42
 energy: -62.486133488414 gnorm: 0.000483514136 xtb: 6.7.1 (edcfbbe)
N           -2.09447078607175       -1.38759030648985       -1.70137974549587
H           -2.17444232313327       -0.81560934423942       -2.53633437257605
H           -2.02844925701311       -2.35557189340307       -1.99524017482162
H           -1.27147041635607       -0.21622555504433       -0.49262948204030
C           -3.26547363194667       -1.19256896012233       -0.83842906879820
H           -4.21216792133668       -1.15493406640276       -1.38642018866971
C           -3.31920780504883       -2.31665531300654        0.19701790338465
C           -3.06078323823048        0.12962394044573       -0.09465048134230
H           -2.38065397687325       -2.36481691370679        0.74577488172141
H           -4.12716304642988       -2.13330599373203        0.89920496511744
H           -3.49059254811185       -3.27434790072450       -0.29099591340495
O           -1.76575321545827        0.45109410807961        0.03169002728296
N           -3.87854054466707        0.92544401726236        0.42802330351622
H           -7.22307946629336        0.55055415255647        1.87829895202600
C           -5.28961608358811        1.03735996099114        0.53774782280251
H           -5.44367142656616        1.40199235046576        1.56556392935530
C           -5.70321515481828        2.15962612173905       -0.45267673046295
C           -6.25478500905405       -0.11294106666618        0.31586612202481
H           -4.97191776440712        2.96202730594739       -0.34597266653990
H           -5.60385763810734        1.74261036963848       -1.45669579260769
C           -7.11554511413644        2.72644393850314       -0.27412239072510
O           -7.30316209026369       -0.15093825362486        1.21955272815623
H           -7.84128590335572        1.90628435053583       -0.24429120719171
C           -7.23993071308680        3.55434482051207        1.00411707931820
C           -7.45881107851012        3.59671313051448       -1.48251146289540
H           -6.56240830585690        4.40414048645852        0.96442348243757
H           -8.25495499082649        3.93020233230718        1.11166277614313
H           -6.99963178477178        2.97673099118110        1.89450387015628
H           -7.43232314809974        3.00896622386791       -2.39663611633135
H           -8.45576095548396        4.01753430554922       -1.37662970177015
H           -6.74706688017173        4.41382650911719       -1.57581106092789
N           -6.13391073300059       -0.93059582481759       -0.62157076585012
H           -8.63132060798994       -0.53693062034123        0.03094627352676
C           -7.01340884269900       -2.02666441979547       -0.94710183426235
H           -6.48855981605882       -2.59689712946482       -1.72290930971852
C           -7.35073963956719       -2.96574238503859        0.21758625648696
C           -8.31805163507640       -1.52441214581568       -1.58657178537644
H           -7.91843789357842       -2.45885880311081        0.99447185258411
H           -7.93497618515252       -3.80316803248404       -0.15608081166645
H           -6.43082330705191       -3.34674939700330        0.65559437467649
O           -9.05169105286296       -0.70608808466669       -0.83364150447041
O           -8.66407904703206       -1.85587029776230       -2.68373213520032
