42
 energy: -62.486133525958 gnorm: 0.000477582293 xtb: 6.7.1 (edcfbbe)
N           -1.05667111095272       -0.91247361935794        0.83513626878093
H           -0.07684372160149       -1.03781328700654        0.61185398296774
H           -1.38533317053675       -1.77297053456034        1.26457926268002
H           -2.23152669819366        0.39053939390363        1.67081812859219
C           -1.83755792285499       -0.62677972430821       -0.36664770636727
H           -1.31218560411506        0.16835942539885       -0.91224470117297
C           -2.04186082556142       -1.82145637398775       -1.29685647284643
C           -3.15991726319121       -0.03486004754302        0.09883820722142
H           -2.60678853867626       -2.60158997962020       -0.79090919194265
H           -2.59105909606686       -1.51097160713331       -2.17941494551874
H           -1.07965577647414       -2.22596407611467       -1.60506585762279
O           -3.11964261863041        0.56059727675386        1.29811991613235
N           -4.17424709325729       -0.10356944004657       -0.64342934783069
H           -5.17109229303873       -1.36506226116373       -1.63195282774551
C           -5.45035801929850        0.44669226747926       -0.23370892956193
H           -5.47965085162823        0.67776626407801        0.83590198156340
C           -5.69851868989274        1.72938164001679       -1.05096427008364
C           -6.48940129854096       -0.60827797572995       -0.54977163236715
H           -4.88772358563905        2.42364332035730       -0.81713587566515
H           -5.61957076926331        1.47065338904609       -2.11000146310589
C           -7.04253351641934        2.41580268292183       -0.79634435701679
O           -6.10707821953621       -1.55431022124773       -1.41730743004339
H           -7.84447920992876        1.70439831496180       -1.01224926001875
C           -7.17841090524437        2.88167347333583        0.65068940329181
C           -7.18654334742147        3.60630699694065       -1.74368058780837
H           -6.37405547954878        3.56919349393715        0.90510774659635
H           -8.12630624188887        3.39550368071924        0.78944325315180
H           -7.14608082920502        2.04052750697986        1.33716342763777
H           -7.11611013265529        3.28726222368954       -2.78103035387288
H           -8.15056746220168        4.08733675212950       -1.59937808628951
H           -6.40527369335358        4.34018565156137       -1.55569327053633
N           -7.63541612133970       -0.53387531911738       -0.02895868213846
H           -8.93039537980838        0.46572444159853        0.77371307621454
C           -8.66756100215176       -1.49917281584260       -0.33806020423266
H           -8.68444461449653       -1.75366507193772       -1.40570601325252
C           -8.49499368563404       -2.78806107108207        0.47297687119283
C          -10.01393775771038       -0.86492568773376        0.03978359821585
H           -8.42472624565588       -2.55230215413598        1.53305556844635
H           -9.35269195165933       -3.43383002403572        0.30718559529876
H           -7.58873589375063       -3.30204340359936        0.16234477179123
O           -9.89555964649058        0.27478493439107        0.71001238325581
O          -11.07068497647791       -1.36438427547592       -0.23127698600657
