42
 energy: -62.486133503114 gnorm: 0.000480923445 xtb: 6.7.1 (edcfbbe)
N           -1.59223398813247       -1.91291186433614        0.32573173029130
H           -0.64386446125547       -2.13688178399852        0.04858459834485
H           -2.13021617363053       -2.77514381697875        0.28985991042664
H           -2.60988401003729       -0.99044131633163        1.68076764012249
C           -2.18215820782919       -0.93350173756303       -0.58835487410019
H           -1.45529121105369       -0.11901004982460       -0.70453766785993
C           -2.55322066345744       -1.48332457637415       -1.96315554586734
C           -3.40007877143377       -0.34543952557992        0.10475556751834
H           -3.25502407321059       -2.30749151975340       -1.85626479058895
H           -3.03886151668788       -0.70364486617187       -2.53900011371851
H           -1.66623784154576       -1.83150252668584       -2.48910203583237
O           -3.40990780455151       -0.47801741884535        1.44891581189038
N           -4.29156673455297        0.21950316543705       -0.57393367596155
H           -7.21189412090691        0.64167581764133        1.72054251986538
C           -5.44364286304395        0.80188678120075        0.06867115529257
H           -5.21722470302124        1.09571473079450        1.10686783088330
C           -5.85067635572459        2.02663892944564       -0.77180155528830
C           -6.56780366139330       -0.20497348727782        0.08347286750965
H           -4.97962219592895        2.68117313934483       -0.83941881532201
H           -6.06309798583996        1.65208641476700       -1.77365026806795
C           -7.04880422959864        2.82586641120810       -0.25013464720573
O           -7.48285160287328       -0.05944084098757        1.11535915357685
H           -7.89133783733153        2.14791644494319       -0.07488499872631
C           -6.71877373152121        3.56455025508052        1.04717482963705
C           -7.48486072265906        3.83210277507381       -1.31418931556827
H           -5.92528608998779        4.28798884678539        0.87211063207166
H           -7.59336998183749        4.09952283975049        1.41099039083379
H           -6.38683290296539        2.88874769052250        1.83318744061382
H           -7.77794451203179        3.31923200308526       -2.22656442766303
H           -8.33228937506012        4.41556173268838       -0.96171268390251
H           -6.67054508017028        4.51430000174130       -1.54827146603711
N           -6.63616500331165       -1.08413681826068       -0.79897036324296
H           -8.94905369737184       -0.39877691000232        0.11406522182709
C           -7.62515377971514       -2.12071519465602       -0.93065143465895
H           -7.25637535792621       -2.77092705027371       -1.73258158682390
C           -7.84041926226372       -2.95919897337305        0.33751239133393
C           -8.98745734954909       -1.58374356791962       -1.39731589585825
H           -8.27617928003362       -2.36673151432996        1.13903533490203
H           -8.50289213504307       -3.79140500863855        0.11285092046065
H           -6.88393096744420       -3.34974508447944        0.67808740664007
O           -9.52198676963860       -0.62358404594187       -0.64346752684954
O           -9.55117424605663       -2.01580449413664       -2.36164456666401
