42
 energy: -62.486133522569 gnorm: 0.000478434904 xtb: 6.7.1 (edcfbbe)
N           -1.84929168633967       -2.05581087923913        0.82680410803709
H           -1.86626587618467       -1.83670215736195        1.81759571138188
H           -0.93550194662971       -2.43444971692531        0.60701755010210
H           -3.72031173134081       -2.45260176301552        0.48542818519965
C           -2.12224743903502       -0.86158554271676        0.03056819701602
H           -1.61227816555827        0.04323051102194        0.38815258170850
C           -1.73054970533784       -1.11435948700306       -1.42639213225054
C           -3.62267988159302       -0.61994189702779        0.08913159963586
H           -2.24531565457633       -1.99481241166163       -1.80634896435613
H           -1.99753968738773       -0.25303161771707       -2.03180408816618
H           -0.65805357089747       -1.27818663215602       -1.50633186678918
O           -4.35369182079371       -1.73158594008479        0.29235131057728
N           -4.05311435211424        0.54996408074103       -0.05662978504593
H           -5.50873954852714       -0.66698639680039       -1.90857450894105
C           -5.44831963193615        0.92515518678375       -0.08665361221301
H           -5.67158193306478        1.37918130204240        0.88450858075176
C           -5.60933772153740        1.98808270275273       -1.18915187512181
C           -6.42948692676895       -0.20337583835666       -0.29990130634060
H           -4.92189842763386        2.80238558479680       -0.95678876783966
H           -5.28953410414566        1.55826945153822       -2.14338777096137
C           -7.03377964985404        2.53249611097431       -1.33846109033972
O           -6.30303416335952       -0.93126296495494       -1.42816981438297
H           -7.71201811208994        1.69719405890396       -1.54532339699213
C           -7.50844388456954        3.23390174461030       -0.06897909328806
C           -7.08222142319947        3.49835464949647       -2.52169410687324
H           -6.80869990942524        4.01648948338483        0.21662365543831
H           -8.48210395967703        3.68792421614446       -0.23612533172244
H           -7.60396457716135        2.52950861912007        0.75230383832071
H           -6.76801829320033        3.00600541361795       -3.43955216382877
H           -8.09288429356692        3.87224220104135       -2.66485095847643
H           -6.42433611808534        4.34646950785394       -2.34413808845787
N           -7.37627747835950       -0.35580547928616        0.51715876574657
H           -8.41295001093693        0.25482024526492        1.87542462994510
C           -8.37248624404007       -1.38722295431105        0.32506906540099
H           -8.68907178274615       -1.46171904232384       -0.72295565524936
C           -7.85002971338752       -2.75318477576325        0.78390151034827
C           -9.58530652855831       -1.01725531643298        1.18797376039495
H           -7.52122697334458       -2.69423006197787        1.81944428213281
H           -8.64327433663412       -3.49054985770231        0.70073000227263
H           -7.00739751833881       -3.04831981905624        0.16414482359741
O           -9.33955566275441       -0.03373323336073        2.04703667058287
O          -10.64337085048445       -1.57698692384348        1.10977991206291
