42
 energy: -62.486133512626 gnorm: 0.000479750408 xtb: 6.7.1 (edcfbbe)
N           -1.72599827744275       -1.14252702255607        1.24539795213727
H           -0.79039707937410       -1.50934825146655        1.11890029377137
H           -2.24334941930879       -1.81339973732225        1.80749136654586
H           -2.66424917627296        0.47142826497251        1.75192113937876
C           -2.39518091463119       -0.96104840427314       -0.04218041035446
H           -1.70058513505689       -0.41554428947092       -0.69463114659984
C           -2.82275612712696       -2.25575277564512       -0.72933854138989
C           -3.58546373460651       -0.04558879722129        0.20258531411251
H           -3.49562789830618       -2.81553579787290       -0.08336122132515
H           -3.35147673615967       -2.01947591278787       -1.64612587958586
H           -1.95486903368212       -2.87084736520070       -0.95896555915236
O           -3.48099375407522        0.74104659993455        1.28632913529461
N           -4.56043772952329       -0.06602680711492       -0.59112291281659
H           -6.84615116023638        0.35234316396948       -2.49824730361079
C           -5.70616287408184        0.80033141857760       -0.37479179038685
H           -5.75627568639975        1.12088397279176        0.67321710578920
C           -5.61088767267574        2.02849823428205       -1.28661208712672
C           -6.89578380701995       -0.09623866648713       -0.64415473399385
H           -4.73949491872699        2.60269287689870       -0.96340752108412
H           -5.40535078096452        1.70388218172966       -2.31270820036505
C           -6.84759493470835        2.93633691336057       -1.25787477861963
O           -7.36839751382954       -0.19574546799017       -1.89911218949044
H           -7.73814971153978        2.35156874697383       -1.51501071347504
C           -7.06290382017901        3.54369342629767        0.12640865288841
C           -6.68429474993037        4.04481094890044       -2.29753173914547
H           -6.16993850523565        4.07233885207336        0.45284659275008
H           -7.88943736464476        4.25005061135179        0.10002202358625
H           -7.29929719944509        2.77588332279323        0.85817442262217
H           -6.55036693355253        3.63025741871872       -3.29479668079327
H           -7.56246583755294        4.68557442891535       -2.31095807082949
H           -5.81693689179647        4.65786605802659       -2.06221886292730
N           -7.32138790450906       -0.80186005467434        0.30885002041993
H           -7.38725882605306       -1.14202591967739        2.07053128946340
C           -8.37492061430138       -1.77741808791165        0.14109855110257
H           -9.23192149365112       -1.36101415623676       -0.40293264007647
C           -7.88436606755848       -3.03026876334588       -0.59314752433649
C           -8.83502123767337       -2.18841383698021        1.54860637211818
H           -6.99845163025756       -3.42423976671035       -0.09915868805689
H           -8.66715043307801       -3.78340003339967       -0.57720115839622
H           -7.63545728303920       -2.78508868307803       -1.62202044506327
O           -8.06670644506583       -1.70338705406194        2.51652616823478
O           -9.78227394145129       -2.89731759803092        1.74763951016885
