42
 energy: -62.486133518537 gnorm: 0.000479289608 xtb: 6.7.1 (edcfbbe)
N           -2.40316271032641       -0.59937083606655       -1.98665641186647
H           -2.44963359434808        0.30915917295777       -2.43679539818156
H           -2.45830528236561       -1.30670750799243       -2.71089751824727
H           -1.39363298866925       -0.33185610136934       -0.37836100406699
C           -3.50183013529470       -0.76089923061000       -1.03231059099071
H           -4.46740609962461       -0.41732277547802       -1.42205503804266
C           -3.59775788323156       -2.23921195168671       -0.64556410024704
C           -3.11872550793955        0.04350021951767        0.21556826485376
H           -2.61776689758753       -2.60661664773337       -0.34714498709734
H           -4.28551904096964       -2.38041520852028        0.18276419902542
H           -3.95278668688298       -2.82620267530469       -1.49051782992825
O           -1.80076164867345        0.05584383190712        0.42616221517099
N           -3.83784971017480        0.64484338067326        1.05826303463899
H           -5.54369509084009       -1.01319598966563        2.54622616308916
C           -5.26696871594459        0.84061777875471        1.05288827572679
H           -5.50011828578779        1.16519987513318        2.07807990720693
C           -5.63770446265007        1.97468032829943        0.08446967033675
C           -6.04054293513462       -0.43044131353019        0.78539869393717
H           -4.96801640482565        2.81148542339538        0.29103515354233
H           -5.44282899575672        1.63253285558404       -0.93267877698311
C           -7.09325988432636        2.44237452274839        0.19070852943301
O           -6.06574437335818       -1.32823926392229        1.79661544381352
H           -7.74434558320544        1.56316695691078        0.15758465092177
C           -7.35208609993210        3.19857611194092        1.49183265026126
C           -7.42604230504573        3.33810013749340       -1.00183861271067
H           -6.68593108517769        4.05485780160483        1.57107927602618
H           -8.37775663195415        3.55936636596839        1.51811060600853
H           -7.19939068011669        2.56269196041692        2.35984870967436
H           -7.29189567342946        2.80343835666347       -1.93935155987951
H           -8.45782817418008        3.67677784690644       -0.94729871083592
H           -6.77911560136679        4.21262444053770       -1.00914891939926
N           -6.54771183617381       -0.65639049201982       -0.34438215254888
H           -6.79440165888840       -0.23147388977122       -2.13699543571590
C           -7.19924647412958       -1.90223707774104       -0.67424544479189
H           -6.76721283029998       -2.76298407086397       -0.15070931745544
C           -8.70037609796521       -1.83010429320387       -0.37062392871751
C           -7.03163013817087       -2.08252840098370       -2.18794846979754
H           -9.14576660281543       -0.97555411384331       -0.87683432597167
H           -9.18443628844811       -2.74001444350180       -0.71426447706376
H           -8.85273757391982       -1.72497868984951        0.70092047227286
O           -6.85099932962305       -0.92886225157911       -2.82808290225137
O           -7.07325213644590       -3.14361758986707       -2.74243891224949
