42
 energy: -62.486133496548 gnorm: 0.000481628433 xtb: 6.7.1 (edcfbbe)
N           -0.97664078853435       -1.18791786770051        0.40938226514243
H           -0.00249655338491       -1.14552532103347        0.13585264555592
H           -1.22355262950675       -2.16994752323026        0.50115662590644
H           -2.15542464616553       -0.37264787812606        1.68592804287738
C           -1.83178110723855       -0.55216324928291       -0.59332738809759
H           -1.35533208088946        0.39448227261325       -0.87861200811815
C           -2.08264597204348       -1.38730409962706       -1.84684139592786
C           -3.13783318592346       -0.18529890985464        0.09321481444975
H           -2.51807320755504       -2.34818613239661       -1.57782559417048
H           -2.78168688218981       -0.86442618304912       -2.49084004236496
H           -1.15189416421540       -1.55843162752563       -2.38362782818598
O           -3.07595511126082       -0.14289554266000        1.44523311344238
N           -4.16566259036724        0.04016806885146       -0.59111274086827
H           -5.01537519932935       -1.60317191630156        1.08968067492929
C           -5.40337332538307        0.48848635519733        0.01568709832446
H           -5.24618889530069        0.80436031564538        1.06010630055432
C           -5.94673936378784        1.65137886613385       -0.81792748271510
C           -6.33757283594781       -0.70111672164839        0.03826746381472
H           -5.12525122630792        2.34760424545926       -0.99746269196246
H           -6.25637808223855        1.24689476945754       -1.78108452382137
C           -7.11229637591090        2.39644456658326       -0.15747481400251
O           -5.89179020072345       -1.77872231353651        0.72175740164085
H           -7.80094257250556        1.65891286358442        0.26421743795102
C           -6.62278791275162        3.31018136460248        0.96478634411578
C           -7.85984165751908        3.21953613454401       -1.20502657143304
H           -5.95750945221198        4.07433181540263        0.56751432024858
H           -7.46456805102609        3.80583713757245        1.44284957991504
H           -6.08532840209075        2.75113386082781        1.72674913344003
H           -8.26675990616482        2.58080786280263       -1.98485850889948
H           -8.68238973211608        3.76220309596873       -0.74534637910868
H           -7.18945115227663        3.94177105654957       -1.66630262392004
N           -7.45487611857191       -0.65938322315189       -0.53432849462185
H           -8.54335608673251        0.14175432303588       -1.72591306801253
C           -8.37121696278881       -1.77547049906729       -0.53531504096956
H           -7.85930691075784       -2.72511852838456       -0.73517308748480
C           -9.12719796988707       -1.89087921031424        0.79286133764396
C           -9.39193014180367       -1.51529378368640       -1.65528479501900
H           -9.61301548610799       -0.94577721098159        1.02766408692021
H           -9.88232884978308       -2.66717078611061        0.70890247596314
H           -8.43554923375539       -2.14332846005652        1.59268393789888
O           -9.30163997233543       -0.29957620222714       -2.17907056305286
O          -10.20225026799920       -2.32856162728876       -2.00280440013379
