42
 energy: -62.486133495237 gnorm: 0.000480880694 xtb: 6.7.1 (edcfbbe)
N           -2.92505371974608       -2.71133552916341        0.50200245119793
H           -3.42644771328276       -2.98856787667830        1.33956711183029
H           -2.00986887026327       -3.14400995833806        0.53034047633635
H           -4.39465467416482       -2.43450568651328       -0.73857893523949
C           -2.80777519002671       -1.25614537839428        0.43408585861684
H           -2.54448002581490       -0.78387923614262        1.38999689409323
C           -1.76754970652002       -0.86950075356095       -0.61739803832901
C           -4.16432002981493       -0.72656664639172       -0.00078472594539
H           -2.02369336001127       -1.30931543315189       -1.57921191794946
H           -1.73721838420939        0.21152202443768       -0.71723260196585
H           -0.78215023661119       -1.22413484234531       -0.32294427206136
O           -4.87269361009683       -1.58011532050479       -0.75859351358692
N           -4.49103656213913        0.44260806574054        0.31841979135524
H           -6.90690426528819        0.50405790833982       -2.17614130993396
C           -5.76192948947931        1.04898021711699       -0.01955032702507
H           -6.05770606742428        1.57827583483545        0.89467259933041
C           -5.52586561700781        2.07847519267088       -1.13346360228669
C           -6.86051418945220        0.04126185570430       -0.31578831393466
H           -4.63198147092770        2.64176636250584       -0.85832318753813
H           -5.28380326909439        1.55548584565698       -2.06597064695461
C           -6.69237930816427        3.05512775037058       -1.34537982696516
O           -7.36176091198907       -0.08070516966365       -1.55741679307575
H           -7.64158855369809        2.50720808890079       -1.32220209887801
C           -6.72989670878837        4.10831377266061       -0.24052622350940
C           -6.55887364750884        3.73584013511575       -2.70750740634329
H           -5.80889489350092        4.68727361993395       -0.23818726736752
H           -7.56300730690363        4.78947296246739       -0.39767344349980
H           -6.84946731181319        3.64778428151844        0.73655189678160
H           -6.59119107230379        3.01005967060967       -3.51821393869229
H           -7.36857263895634        4.44568140877854       -2.85753646427092
H           -5.61595275794076        4.27499217043573       -2.76820330683453
N           -7.25484120738148       -0.66945687112534        0.64937738876522
H           -7.33987849969362       -0.95432061807108        2.41631485933354
C           -8.28259058357097       -1.67368786373074        0.49831096237485
H           -9.12816929317854       -1.30342912719057       -0.09517041802906
C           -7.74886310981186       -2.95555706481067       -0.15088350360767
C           -8.77621836495128       -2.02322660926391        1.90976237085825
H           -6.91281834876583       -3.34241758386143        0.42807407170031
H           -8.53987485989349       -3.69963878284489       -0.17606178307123
H           -7.41110379528957       -2.74333546033171       -1.16141180721121
O           -8.02433997488819       -1.50211211880797        2.87264346218802
O           -9.73026169831402       -2.72024899044923        2.11917063435010
