42
 energy: -62.486133514486 gnorm: 0.000479595337 xtb: 6.7.1 (edcfbbe)
N           -1.96332202411994       -1.93329080120841        1.14541458270387
H           -1.79512560020259       -1.43995643512181        2.01624796440331
H           -1.14085040744766       -2.48679614161705        0.93643496741825
H           -3.90319436544664       -2.14342951261862        1.18315317934690
C           -2.24482652345158       -0.99156421822041        0.06455289130828
H           -1.60149591780567       -0.10070418353209        0.06701573886794
C           -2.11147909271074       -1.70058759062322       -1.28446688792914
C           -3.68695759738771       -0.54252453579638        0.23036577222062
H           -2.77433593810869       -2.56255341569121       -1.32237047678887
H           -2.37010476326426       -1.01495704396207       -2.08598099561198
H           -1.08875866349478       -2.04050866477567       -1.43281157523297
O           -4.47800360069121       -1.41547580601833        0.86925533267452
N           -4.04298946379936        0.56617919208358       -0.24591166028372
H           -5.44577541107616       -0.32352059592022       -2.14306974335334
C           -5.41937052055364        1.02282512180050       -0.17119829360299
H           -5.62817450322666        1.34809130421349        0.85349032476416
C           -5.57292167114981        2.20608222173932       -1.13801345714603
C           -6.39249619134509       -0.08239856415053       -0.50455666761326
H           -4.90892666171440        3.00046026866189       -0.79482981517979
H           -5.22053445475000        1.89980567111504       -2.12718330851935
C           -7.00538772427016        2.73718784064180       -1.25568916366664
O           -6.21154033727969       -0.70133030697902       -1.69084388595699
H           -7.65467586386277        1.92633163867701       -1.60541156868038
C           -7.53818127835755        3.23185390540874        0.08636622061366
C           -7.04348160560960        3.86507961492625       -2.28577957540903
H           -6.86408845202845        3.97150109042707        0.51327620601264
H           -8.51374285128848        3.69325891668416       -0.04680705867999
H           -7.64868783408364        2.40889738605639        0.78679123699135
H           -6.68767122847542        3.51990250395914       -3.25420051909228
H           -8.05870258846701        4.23446033995729       -2.40742817199796
H           -6.41390184144349        4.69175335460991       -1.96350869515226
N           -7.30352096668836       -0.38518292583154        0.30820317975642
H           -8.25084995646018       -0.05071983657766        1.80911926224902
C           -8.25083700683611       -1.44246770017360        0.03258072092582
H           -8.65453461546692       -1.37304367878778       -0.98543357662280
C           -7.62394624204038       -2.82790865635795        0.22439310257344
C           -9.40268329392483       -1.29005133258213        1.03601883442286
H           -7.16201360155434       -2.88860663110419        1.20746984244225
H           -8.39629216969768       -3.58726811212122        0.14033693429159
H           -6.86337917640332       -2.99602265726660       -0.53336033220924
O           -9.14139278174221       -0.42505322554299        2.00882920550785
O          -10.42703645378375       -1.90977361277466        0.95847511474363
