42
 energy: -62.486143125460 gnorm: 0.000732932949 xtb: 6.7.1 (edcfbbe)
N           -1.08788789639440       -1.41525944793086        0.47847810053162
H           -0.08793176251632       -1.35568319633851        0.33005496728730
H           -1.35826947819224       -2.38519437562077        0.33794789619001
H           -2.38806435994564       -0.82861291840114        1.76050071028405
C           -1.81094527923031       -0.55707384455471       -0.46043103233078
H           -1.29045997873037        0.40887809287587       -0.49019516145369
C           -1.92806613692561       -1.11041660495589       -1.87879993599416
C           -3.18113199813773       -0.28764281128881        0.13846211813586
H           -2.40691219232565       -2.08792824840343       -1.86221019627164
H           -2.53963343271114       -0.44124976224472       -2.47461386985189
H           -0.94420481918817       -1.20559333061812       -2.33341208989565
O           -3.27284749867759       -0.52336126390944        1.47305008476280
N           -4.12314534403199        0.11115773658360       -0.58664633402861
H           -4.96413753505666       -1.68303652594897        0.88515455075335
C           -5.41218325739545        0.48456099453792       -0.04043629332543
H           -5.31387274390443        0.77716471279690        1.01869651573065
C           -5.95869064822789        1.65193556156083       -0.86583526211386
C           -6.32259400621781       -0.72511106773542       -0.06666989862438
H           -5.13113208452083        2.33526334559894       -1.06441691461484
H           -6.29659773102454        1.25304136085578       -1.82184296220402
C           -7.09796738813991        2.41491321656350       -0.18016708526983
O           -5.83369765270894       -1.85060539846039        0.49534553416734
H           -7.78241726217275        1.68808218221916        0.26627698939835
C           -6.56718166948161        3.33097320606658        0.92131355890133
C           -7.86431395543096        3.24012620796684       -1.21227278398124
H           -5.90730843537845        4.08660594523655        0.49948771678814
H           -7.38984043713723        3.83696134725803        1.42129939329869
H           -6.01175436526319        2.77193280224170        1.67041407010352
H           -8.29902934012862        2.60216255018271       -1.97753600439027
H           -8.66836858145953        3.79452136223783       -0.73429017346944
H           -7.19826285542005        3.95217405643744       -1.69522001902430
N           -7.48681766249865       -0.63673630850149       -0.53329361684799
H           -8.65022667290100        0.23625275558861       -1.59966815983114
C           -8.40431663354796       -1.75231273412842       -0.54519194384539
H           -7.91181124333248       -2.68619458883460       -0.84380156609968
C           -9.06355119245142       -1.95571187768488        0.82333787725094
C           -9.50119684809308       -1.42116706691994       -1.57008417796965
H           -9.52297546172614       -1.02696311062492        1.15610998519197
H           -9.82924812070455       -2.72187217944634        0.74191714669380
H           -8.31818696460238       -2.26443800847794        1.55205157775300
O           -9.43888461520257       -0.17701483840798       -2.02678212606082
O          -10.34012572243510       -2.20955378746122       -1.90714612552615
