42
 energy: -62.486132250315 gnorm: 0.000631211882 xtb: 6.7.1 (edcfbbe)
N           -2.85533848493737       -1.76907235491085        1.89870053320014
H           -1.92715664598597       -2.13954293124964        2.05952732784430
H           -3.50451189022889       -2.55299828510039        1.90102123409209
H           -4.15210517316953       -0.55028417273880        2.49944908612220
C           -2.92802851351415       -1.06826508414529        0.61886122857618
H           -2.05878985769621       -0.40307032150671        0.55018598205852
C           -2.96248135027005       -1.98572581327570       -0.60348305547300
C           -4.17387718291736       -0.19614519076120        0.65725565662566
H           -3.79528137318210       -2.68078820969398       -0.51942969129742
H           -3.10083729806206       -1.38768981126174       -1.49762496960106
H           -2.03620275402655       -2.55120030238467       -0.68321566389019
O           -4.71702007906090       -0.04070531787010        1.87890780968991
N           -4.60415141599674        0.33778974978856       -0.39755541920552
H           -8.12199613099662        1.28392820640968       -1.30539730164586
C           -5.85316863467697        1.06268254975362       -0.37994297485836
H           -5.93569195640713        1.66475312306079        0.54031897619449
C           -5.90600203358324        1.97986838988067       -1.61229515845733
C           -7.00337571132488        0.06819403536645       -0.32383870777346
H           -4.87319732560143        2.17326229047227       -1.90538205909692
H           -6.36790285442467        1.44583955633220       -2.44765746996910
C           -6.61458008594871        3.32198257368688       -1.36871683228743
O           -8.17864986119637        0.41640040845217       -0.88442557089132
H           -7.52225427344728        3.16404997699359       -0.77006049389678
C           -5.70730915323123        4.27515975010907       -0.59328885679966
C           -7.02081998563842        3.95390539156861       -2.69934826223119
H           -4.82543362767615        4.51619308456244       -1.18238081078721
H           -6.23203764476493        5.19994674508531       -0.36446831935446
H           -5.37993338205236        3.82834594589982        0.34225042910640
H           -7.71375523184313        3.31611139574473       -3.24533545082419
H           -7.50273482816902        4.91443938126674       -2.53258279818039
H           -6.14347429588918        4.11502499983979       -3.32143785704023
N           -6.82602601510170       -1.02388995606834        0.27205809896304
H           -5.82046901552545       -1.89428434587607        1.40879854780644
C           -7.81556556525713       -2.06398444056115        0.39969736311085
H           -8.72204186955924       -1.68993793377804        0.89464446224667
C           -8.20581447201310       -2.69393868285247       -0.93955010812498
C           -7.19036532649442       -3.14126529129740        1.30545392888477
H           -7.30976546487472       -2.98323385870618       -1.48525797015390
H           -8.80918568714281       -3.57768249748386       -0.75202838891407
H           -8.77248989114028       -1.98593884126891       -1.53780615628517
O           -5.98782628252593       -2.80818264965830        1.76217687625270
O           -7.72854265242881       -4.18207714876258        1.56213810765390
