42
 energy: -62.486133510206 gnorm: 0.000480453636 xtb: 6.7.1 (edcfbbe)
N           -0.95885945243656       -0.41933208424389       -0.94611142807686
H           -0.28645306014918       -0.96016930007807       -1.47683604004987
H           -0.63743146888795       -0.39428256396855        0.01807049351534
H           -1.95156761878237        1.23275158991746       -1.07592403188589
C           -2.28544630559618       -1.03410567022389       -1.00755999508215
H           -2.49569220207458       -1.24344555912806       -2.06444541375979
C           -2.43655748408738       -2.32164338878133       -0.20356834213554
C           -3.29794960397561        0.02123154005280       -0.57787268548729
H           -2.19196828178328       -2.14237591898846        0.84131284417217
H           -3.46706370491169       -2.65340773162003       -0.26201069610496
H           -1.77964812814855       -3.09602086071097       -0.59473872466377
O           -2.87837084125564        1.28914592321159       -0.76689838852744
N           -4.39365437649123       -0.35709680205826       -0.10339800898280
H           -7.22752521486244        0.32383211462838        2.00661716320550
C           -5.49265114681775        0.48746240855107        0.28762103703603
H           -5.30811838161199        0.82811601631877        1.31766988933426
C           -5.73905993108907        1.70217968159069       -0.63025675358806
C           -6.73156233653787       -0.38112842459725        0.25394351471682
H           -4.84764231412975        2.32862581752385       -0.63081921192544
H           -5.88026549575682        1.30363825636102       -1.63661491912528
C           -6.95242848449983        2.55707367856330       -0.24822927573976
O           -7.58498240963861       -0.27709346137569        1.34225858844736
H           -7.83252824560294        1.91435424725204       -0.13601491270958
C           -6.72075508583506        3.32234712831174        1.05431306874660
C           -7.24325975437694        3.54554861097010       -1.37620533608274
H           -5.86189782290925        3.98253400931172        0.95155957670286
H           -7.59139719325211        3.92836207279640        1.29516484219199
H           -6.53469753902670        2.65632913201533        1.89493589948121
H           -7.45731672265522        3.01561176439833       -2.30076746040898
H           -8.10352938515989        4.16342637281225       -1.12937538747258
H           -6.38675555873093        4.19587233481869       -1.54081466254456
N           -6.93519407976642       -1.11627117893271       -0.73283551529182
H           -9.13387323350441       -0.34994983482388        0.41558133759468
C           -8.04268181075955       -2.00950556446101       -0.94974671621664
H           -7.78474135276340       -2.57561530598257       -1.85231639771908
C           -8.30149197820251       -2.99150043420880        0.20104364064840
C           -9.34565422096119       -1.25828344089168       -1.26417236311545
H           -8.61643985006717       -2.47486376871614        1.10505654180608
H           -9.07587772134172       -3.69648264949881       -0.09134694914861
H           -7.38652949751105       -3.53831467572844        0.41680624098653
O           -9.75008081574648       -0.38561184452301       -0.34076997036592
O           -9.97659114588927       -1.45396788949956       -2.26336992232184
