42
 energy: -62.486133512834 gnorm: 0.000479599908 xtb: 6.7.1 (edcfbbe)
N           -1.99150197414641       -2.06654135666337        0.94750259068357
H           -2.04866503570522       -1.82148880014124        1.93076800249865
H           -1.07716073728333       -2.46981490915669        0.77963056718837
H           -3.86002812996361       -2.42659819837170        0.52428866906699
C           -2.20051319405409       -0.88716759505302        0.11071183191190
H           -1.67826983695240        0.01269857772952        0.46335543772939
C           -1.76286041666968       -1.19145553449606       -1.32311990069060
C           -3.69458073126386       -0.60362364667757        0.10793257286527
H           -2.28978721070363       -2.06662211123179       -1.69851774903078
H           -1.98181811158640       -0.34019063380388       -1.96101988505109
H           -0.69355530389924       -1.38865432077872       -1.35811257563759
O           -4.46348978835182       -1.69104637787354        0.29381161806221
N           -4.08694346973582        0.57415827481048       -0.07608922511058
H           -5.69127323175615       -0.54258046664906       -2.01876066045016
C           -5.47120637416998        0.98463939206635       -0.14966103245809
H           -5.69526986575307        1.47730406611708        0.80303872591409
C           -5.58945552186444        2.01354417831406       -1.28728227201140
C           -6.47191721548337       -0.13454591457215       -0.32273725747672
H           -4.92226831484987        2.84202885799718       -1.04635558001917
H           -5.21988997588888        1.56605994423454       -2.21541107039621
C           -7.01208194373675        2.53734920598669       -1.51269635794498
O           -6.43336090257207       -0.83438500247504       -1.47518328396908
H           -7.66666797562482        1.69363527582834       -1.75942913498768
C           -7.56641024650199        3.22461676902418       -0.26763887543721
C           -7.01063713685496        3.50705182961156       -2.69377891576815
H           -6.88654933775433        4.00321909050162        0.07157766933045
H           -8.52723250962092        3.68185740040581       -0.49145495262047
H           -7.71427322353435        2.51016210501624        0.53736792493543
H           -6.63087287583557        3.02582757348216       -3.59265741134458
H           -8.01864979628703        3.85994140125357       -2.89658702016471
H           -6.38325133184075        4.36823896046670       -2.47414000631419
N           -7.32609011334399       -0.33628350897864        0.58087767997263
H           -8.20578459043454        0.19070053257997        2.07628826698533
C           -8.32288635515041       -1.37725391564633        0.45541268548523
H           -8.75395279881153       -1.41144883673521       -0.55301679193546
C           -7.73755041610050       -2.75328084909830        0.79168645647131
C           -9.43550786392529       -1.06580654729819        1.46424040885873
H           -7.29044239979441       -2.73181213403387        1.78333996560323
H           -8.52840199197167       -3.49752868082771        0.76985810005811
H           -6.97036592966001       -3.01027124738766        0.06634265295487
O           -9.10489189836091       -0.11891200992992        2.33609053566113
O          -10.48987525347421       -1.63774648777723        1.47846195799783
