42
 energy: -62.486133511796 gnorm: 0.000480359012 xtb: 6.7.1 (edcfbbe)
N           -0.98002990431102       -0.47717676570143        0.52618365506110
H           -0.06777665763044       -0.74792572615058        0.17977785400161
H           -1.13544369626915       -0.97486142740933        1.39881686640848
H           -2.04102039534097        1.08418251498961        0.88189890625146
C           -2.02899121574334       -0.82165494716046       -0.43239276091633
H           -1.68733061837727       -0.49137155344159       -1.42220000952903
C           -2.37628567380745       -2.30796834035073       -0.48735928859677
C           -3.24761047143188        0.02242015266256       -0.08540502407311
H           -2.69399473935661       -2.65292965090465        0.49445292846805
H           -3.19309225853272       -2.46669537149463       -1.18288179473929
H           -1.51296947261434       -2.88892267972599       -0.80579062817890
O           -2.99337268032531        1.11054563813449        0.65629993154324
N           -4.38418989303821       -0.32818214525930       -0.49586774622307
H           -5.77742298724587       -0.63205734725263       -2.27818450208987
C           -5.56310534168771        0.46984120121699       -0.21937090561698
H           -5.65502402464278        0.66455637627879        0.85431559682805
C           -5.54245190584083        1.80610174984750       -0.98265076403846
C           -6.72984915543484       -0.37469084477151       -0.67275908265608
H           -4.74419413704786        2.42113189295078       -0.56457400476766
H           -5.29476475508572        1.60761280773148       -2.03042344419051
C           -6.86925862026263        2.57011810622452       -0.91920370884016
O           -6.66266666187294       -0.82471548981903       -1.93757140480720
H           -7.65981876637302        1.93651329104528       -1.33718056497759
C           -7.24712372876934        2.92916511225561        0.51509213779061
C           -6.76427181217857        3.83540334832910       -1.76922001672178
H           -6.44023447341925        3.48084464612101        0.99297767057583
H           -8.13959707573186        3.55019320108504        0.52154311144102
H           -7.45531437046526        2.03568488984164        1.09677920392514
H           -6.51431533350678        3.59196567472354       -2.79970340741307
H           -7.70887315490773        4.37351421578923       -1.76567516286839
H           -5.99300713870239        4.49333763371954       -1.37412071933024
N           -7.64382698364858       -0.67869708228364        0.13842676829711
H           -8.56669208288249       -0.31816188588966        1.65430094494384
C           -8.76062096151389       -1.51094665514328       -0.25537873043420
H           -9.12104600228757       -1.26729001791848       -1.26244171671443
C           -8.39049880541582       -2.99749451432193       -0.20771818491682
C           -9.89342332238478       -1.26047025800981        0.75032991248940
H           -7.99244561074339       -3.24832959397937        0.77341420031979
H           -9.27752829976692       -3.59526911715281       -0.39721547493162
H           -7.63776591279487       -3.21457116789794       -0.96128616527148
O           -9.51267614830984       -0.55132668604616        1.80670473082350
O          -11.00626600846911       -1.68344902479820        0.60419578444775
