42
 energy: -62.486133501027 gnorm: 0.000481065441 xtb: 6.7.1 (edcfbbe)
N           -1.68586632761430       -1.77734814125133        1.05629219875450
H           -1.47422598282622       -1.23935762351513        1.89010052946842
H           -0.86120856937179       -2.31313599032974        0.81318167861185
H           -3.60034511012470       -2.03521562482586        1.27914647109533
C           -2.07759465360101       -0.89701927626781       -0.04174649745435
H           -1.47751186692027        0.02062320903444       -0.11476805828615
C           -1.99282979535692       -1.65423180646764       -1.36856251415750
C           -3.52513316535571       -0.50395557162913        0.19736376160273
H           -2.62314596081525       -2.54055290545820       -1.33757903706093
H           -2.31855298547175       -1.00954167511803       -2.17981896985099
H           -0.96755309766886       -1.96307777850637       -1.56134935433192
O           -4.22728061937254       -1.35383498998050        0.96048150413497
N           -3.98025283728218        0.54319029012929       -0.33552618596256
H           -5.08990587839416       -0.73251675057242       -1.89243779397818
C           -5.37772462434664        0.89903499250027       -0.17085169782041
H           -5.56127344428774        1.19085609226114        0.86817272027629
C           -5.66787853453917        2.08127234971248       -1.10975536481136
C           -6.29145230144206       -0.25999028958485       -0.49294221682645
H           -4.94364168080410        2.86389581209758       -0.87885618204322
H           -5.48016953952050        1.75611396500341       -2.13655151351199
C           -7.08963976729676        2.64182053510639       -1.01061242681229
O           -5.93053850810870       -1.04472254507315       -1.52872077717577
H           -7.80178453461558        1.82512560076923       -1.16784207656377
C           -7.36145404955694        3.26302433972798        0.35686544630237
C           -7.29986294889047        3.68534862460653       -2.10700149806201
H           -6.64883155189988        4.06019904696305        0.55918160598326
H           -8.36384403814660        3.68317532164339        0.38286395911606
H           -7.28869909944461        2.52094605302031        1.14680347870028
H           -7.14253249818353        3.25106227190180       -3.09176203578598
H           -8.31230419465687        4.07908363753332       -2.06604320709561
H           -6.60424988506994        4.51254692908904       -1.98122923934354
N           -7.36260053063179       -0.40411517023291        0.15162362358188
H           -8.66700993600024        0.33563750341654        1.16657352659027
C           -8.29489966514577       -1.46595410544311       -0.15268009943371
H           -8.39417778679528       -1.63278095595408       -1.23307357064647
C           -7.87159254380081       -2.77825388867709        0.51581059373193
C           -9.66020431740973       -1.04817274547931        0.41221558347997
H           -7.72421859496135       -2.61825697680738        1.58176044680237
H           -8.64667978129606       -3.52491763239525        0.36797149289254
H           -6.93912559095546       -3.12844233745238        0.08050602766917
O           -9.60598715383660        0.03382078771016        1.17957083057768
O          -10.67240730200952       -1.65340838766389        0.19215998012764
