42
 energy: -62.486133516001 gnorm: 0.000480062943 xtb: 6.7.1 (edcfbbe)
N           -1.33991339734337       -0.72535372706722        0.32383235077412
H           -0.62748444026784       -1.43414066715455        0.19616341057516
H           -1.33901523081516       -0.46728951978203        1.30716274313903
H           -1.98052745718223        0.89918687490064       -0.49351011980492
C           -2.65817728348448       -1.24204418866824       -0.04495824737420
H           -2.55791636285726       -1.69307012255062       -1.04147632282148
C           -3.23831742791061       -2.27316609326734        0.91856764462231
C           -3.58233669926376       -0.03883406705773       -0.20629626981516
H           -3.31475976950340       -1.85051458224078        1.91772605428953
H           -4.23445580505852       -2.54997639326810        0.59208778093812
H           -2.60739579420626       -3.15893283901658        0.95346805425918
O           -2.93710758494845        1.10124379182158       -0.53668835519715
N           -4.80965671673920       -0.20741347108390       -0.03310096859067
H           -7.29202147421731        0.85805869506594       -2.21719253810620
C           -5.87766156342433        0.75378125249774       -0.16118755881392
H           -6.08444274415193        1.10689651206394        0.85809576937072
C           -5.63487922932219        1.96431291477051       -1.07177574091068
C           -7.07573201475270       -0.09921377954384       -0.56664686594307
H           -4.68315914775669        2.41351834607460       -0.79008410495279
H           -5.51649284582988        1.62456372359173       -2.10730162144075
C           -6.73039749746711        3.03839627133741       -0.96584980181516
O           -7.69112348527154        0.11585074590573       -1.74507762692496
H           -7.71664837232471        2.56466198300705       -0.89110950127285
C           -6.52902859239001        3.89086544632026        0.28545514824501
C           -6.71152189483272        3.92829713437128       -2.20857425558860
H           -5.57569605480142        4.41289055050288        0.23790984759280
H           -7.32162593363223        4.63054926302824        0.37119379927881
H           -6.54099897808093        3.27756078695353        1.18312268769079
H           -6.92271814967158        3.35616050922236       -3.11067044839318
H           -7.45872378982257        4.71386546713329       -2.12498322407593
H           -5.73534795979579        4.39507290007830       -2.32136271960275
N           -7.41016316808117       -1.02006639182119        0.22150017173944
H           -7.08578330007182       -1.90150691826921        1.73554660997644
C           -8.46996581088913       -1.96147017388570       -0.04549678543942
H           -9.42008329318848       -1.45123042842252       -0.24820121436235
C           -8.15334456195471       -2.89976437642760       -1.21561660008076
C           -8.62662801418614       -2.81291101658810        1.22672908524346
H           -7.18274991238961       -3.36683106248555       -1.06066863424208
H           -8.91643539735095       -3.67108482871931       -1.27077432822084
H           -8.13355023619901       -2.34203607481995       -2.14785067236660
O           -7.66091251623147       -2.61346198168790        2.11307451488339
O           -9.52129135783640       -3.59744630640139        1.38375403472221
