42
 energy: -62.486132295031 gnorm: 0.000622385934 xtb: 6.7.1 (edcfbbe)
N           -0.83771387193620       -0.18491475953182       -1.15808772034247
H           -0.11084470639098       -0.75582577573090       -1.57173258505827
H           -0.45477380901520        0.23926269879177       -0.31750970369736
H           -2.09234623035425        1.14311616756871       -1.65831004363735
C           -2.01121717636343       -0.98717153557320       -0.82023524718131
H           -2.22455197509388       -1.62858076577227       -1.68592158104714
C           -1.84269907239213       -1.85642418446475        0.42458911261873
C           -3.19481395446357       -0.02408019117955       -0.69290606040702
H           -1.62165366148969       -1.23198214490167        1.28734697799119
H           -2.75684260822688       -2.40325191708764        0.62718449154329
H           -1.02839979002218       -2.56443226605881        0.28275623905875
O           -3.00767527638454        1.15000356378558       -1.30568125986579
N           -4.19673580669764       -0.40954895497120       -0.03997022686685
H           -5.05790602879749       -1.93484809539120       -0.58437767506202
C           -5.48227758137802        0.23045231263471        0.13522872951887
H           -5.61473199511455        0.32879188415227        1.22050385714659
C           -5.62518541449865        1.61342522902790       -0.52089272083354
C           -6.51398519438913       -0.78557442827969       -0.34639514798480
H           -4.82684109619146        2.23958375776140       -0.11653220161586
H           -5.44697631737270        1.50423542310542       -1.59238993732159
C           -6.95876857613593        2.33951942120301       -0.32351080928927
O           -6.02519317818708       -1.97355890647829       -0.73462069032605
H           -7.72897685955341        1.80520620766974       -0.88300013278508
C           -7.37034690078718        2.41325187328137        1.14408592237079
C           -6.84331947756321        3.74868677078320       -0.90459193188157
H           -6.58814724714431        2.88572040136826        1.73559965099622
H           -8.27808586000693        3.00320684929925        1.24712119797220
H           -7.56185149579865        1.42155586599690        1.54509195055173
H           -6.54159057375357        3.71120010337447       -1.94860993177451
H           -7.79994974168921        4.26155501704410       -0.84334081986779
H           -6.10560388946703        4.33053330981157       -0.35541140575721
N           -7.74338505496239       -0.50602477596685       -0.34600937692058
H           -9.19040449926043        0.61096986357257        0.00285564233413
C           -8.72474418802565       -1.47383624325450       -0.79086449525416
H           -8.44300163129210       -1.92528561391068       -1.74985688245504
C           -8.93664966198991       -2.59230083330899        0.23762474324030
C          -10.05997548069199       -0.73755093305920       -0.95520917026770
H           -9.19202757214182       -2.16454877095998        1.20539876472452
H           -9.74826723009157       -3.23453721806398       -0.09280891700061
H           -8.02829729920688       -3.18058731774079        0.33732419768678
O          -10.09161430718007        0.44664450609555       -0.35474761633009
O          -10.99781897118067       -1.20408141076361       -1.54025216355798
