42
 energy: -62.486133506875 gnorm: 0.000480358079 xtb: 6.7.1 (edcfbbe)
N           -2.20230598392379       -1.54515972405799        1.86062092854689
H           -1.76418625423388       -0.82052095404765        2.41874277543595
H           -1.54473532979417       -2.30864857642988        1.75957643828638
H           -4.07419041702503       -1.39121344314009        2.28025620754876
C           -2.60960595276888       -1.03048755481816        0.55497364775509
H           -1.90626999964805       -0.30435788554527        0.12436997961975
C           -2.78889287392211       -2.19125899149473       -0.42435770107941
C           -3.95039664575872       -0.33439483483031        0.74178832676211
H           -3.43395135132850       -2.95274980797951        0.00717200644596
H           -3.23255161049862       -1.82484234479564       -1.34485538739105
H           -1.82426785895639       -2.63952213624586       -0.65414793226424
O           -4.64019850827029       -0.73432867308027        1.82055350867617
N           -4.28857861176331        0.55009598499428       -0.08527918574852
H           -7.71962713077896        1.92193485422361        0.83065008423115
C           -5.56254558771219        1.22759778740149       -0.06052925364209
H           -5.51269578649577        2.02057081694249        0.70175421830275
C           -5.72122347319979        1.85862101466796       -1.46059749043341
C           -6.75524559257304        0.35447062320600        0.25383930216401
H           -4.78176476626712        2.36786779876354       -1.67976301546589
H           -5.82006945336766        1.03452858879085       -2.16927432979034
C           -6.88708933966546        2.83393580447229       -1.65001435251726
O           -7.86911010030008        0.97674216445326        0.70824384921817
H           -7.82673972537351        2.33704071642393       -1.38421926300749
C           -6.72410840104419        4.09562120747985       -0.80231217143984
C           -6.97597668303687        3.22415919945577       -3.12554683748663
H           -5.80877941643879        4.61427190906848       -1.07914918509461
H           -7.56157128899049        4.77050327484055       -0.96616759988211
H           -6.67517255515878        3.87730091626409        0.26305685721253
H           -7.13049177590372        2.34541424196057       -3.74677665043160
H           -7.80460746501006        3.90934513328663       -3.28931781395531
H           -6.05796568746701        3.71276543840901       -3.44419053032611
N           -6.69312910115348       -0.89262253424167        0.11038334603236
H           -5.66003812773319       -2.32694327608650        0.08007668676294
C           -7.80108896292643       -1.76285523357063        0.42269439336389
H           -8.32065725820210       -1.45081812327697        1.33778129338152
C           -8.81194537655803       -1.82415836177728       -0.72659771446080
C           -7.21561628555646       -3.16585898773877        0.64264743524403
H           -8.30354437231068       -2.07686910908363       -1.65500908426389
H           -9.55586665308017       -2.58525452193613       -0.50873346531996
H           -9.30264505474143       -0.86079823154430       -0.84145653812411
O           -5.92338755405466       -3.24353379436158        0.34656655238107
O           -7.86335688536085       -4.09761615660033        1.03148256687736
