42
 energy: -62.486133512629 gnorm: 0.000480425917 xtb: 6.7.1 (edcfbbe)
N           -0.95299371381128       -1.16980238945083        0.14968900926558
H           -0.49097704582127       -0.38998222811472        0.60559449271874
H           -0.24700694541315       -1.71301591699393       -0.33254119216797
H           -2.42725427951789       -1.54690675879530        1.27796285244763
C           -1.97131272928451       -0.69460967541084       -0.78664225967769
H           -1.68801537327785        0.21694378987221       -1.32852980633052
C           -2.30667195225446       -1.79206136305150       -1.79710164298424
C           -3.22397001106325       -0.40058052467975        0.02097105936249
H           -2.59114007891780       -2.70597958819038       -1.27939917748722
H           -3.13279454577715       -1.46831776622213       -2.42286386322006
H           -1.44604866971660       -2.00052544068589       -2.42918400807059
O           -3.28841599695472       -1.08183262052842        1.19438574062840
N           -4.05623661614600        0.42154020869303       -0.42145478974620
H           -5.08060667515652       -1.21943957106262        1.64925429947278
C           -5.33870337773695        0.74404703608033        0.17401922927581
H           -5.17534273398068        1.12361546795913        1.19670599991393
C           -5.95781852312916        1.83899673353792       -0.69814763166925
C           -6.23040653902998       -0.47677483997990        0.30014532185174
H           -5.19863253233664        2.61074242720303       -0.83473989012538
H           -6.16192141697768        1.39984276525000       -1.67412792184444
C           -7.23431947362134        2.46895088531766       -0.13343469540338
O           -5.96620102732335       -1.36206643418749        1.27581283782489
H           -7.91730553275380        1.66796148658638        0.16363357550872
C           -6.94081834420855        3.34051128611431        1.08634186774352
C           -7.91058333244413        3.30552428770333       -1.21819267078951
H           -6.23226891339843        4.12577151185412        0.83029155459178
H           -7.85524510127846        3.80871234607821        1.44346420130612
H           -6.52572432035684        2.75479907000678        1.90285505029161
H           -8.17703687307373        2.68779597186410       -2.07205390407972
H           -8.81721669845123        3.76724273247939       -0.83441469914777
H           -7.24275041252406        4.09410361898011       -1.55864934024187
N           -7.19483372732562       -0.61446806930258       -0.49964119582765
H           -8.04296748705170       -0.12788993892264       -2.01271696539091
C           -8.08455954488821       -1.74968146141315       -0.44500559637996
H           -7.54425498457469       -2.69209142264206       -0.28874329977159
C           -9.13204043876822       -1.59145442624947        0.66356072547659
C           -8.81951792761597       -1.80481629794995       -1.79267403950397
H           -9.66280855425426       -0.64895792113568        0.54218052775481
H           -9.84389099192375       -2.40999570920581        0.60499418737134
H           -8.64550630504718       -1.60297535073640        1.63570906268366
O           -8.66499129062721       -0.70430881369247       -2.51864131992178
O           -9.48508022543623       -2.74059295571909       -2.13973653120241
