42
 energy: -62.486133503472 gnorm: 0.000481081952 xtb: 6.7.1 (edcfbbe)
N           -2.22225061030644       -1.55207269836902        1.95591504940519
H           -1.83583721801005       -0.83340515120847        2.55859125403709
H           -1.53309393097389       -2.28799512635779        1.86025665622651
H           -4.12357832529853       -1.45192907168954        2.28428279502748
C           -2.58210109545453       -1.00274049937921        0.65037366928051
H           -1.86795985614498       -0.26060002540450        0.26729902688468
C           -2.71815172307157       -2.13649888412616       -0.36669486479677
C           -3.93496255966172       -0.32413467030532        0.80350866499281
H           -3.40670647519434       -2.89382399339126        0.00024994850128
H           -3.09145240781531       -1.73959113730721       -1.30559182241935
H           -1.74939712942309       -2.60001795759494       -0.54240061307683
O           -4.67440974791179       -0.78269960966974        1.82521751986827
N           -4.23907297215486        0.59714694009809        0.00399483967307
H           -7.57765756503350        1.90763353363988        1.14442231254341
C           -5.52064762348418        1.26083960157283       -0.01260739048687
H           -5.47439140625552        2.09193267853803        0.70795524661242
C           -5.69372508256028        1.82279585937488       -1.43783760853404
C           -6.70666927675797        0.39048552915257        0.33358078238749
H           -4.77478375786038        2.35513147650247       -1.68610991777905
H           -5.77170902008023        0.96550985093312       -2.10829064635043
C           -6.89960205107770        2.74480894572729       -1.64333097055182
O           -7.75925704163673        0.98113838919566        0.94590125264860
H           -7.80258042458371        2.24778959518211       -1.27139955472070
C           -6.72611557880317        4.07837591507807       -0.91714289263297
C           -7.09091653294399        2.99973404298160       -3.13795469228980
H           -5.85053786709728        4.59935132277131       -1.29839631789488
H           -7.59642925999509        4.71131026691308       -1.07632472128603
H           -6.59867517915717        3.94825682259997        0.15570229326019
H           -7.26421179879386        2.06611897611034       -3.66743666079031
H           -7.94358109218115        3.65315529247122       -3.30775839675301
H           -6.20595352132810        3.47331511919316       -3.55703345408087
N           -6.68914639887517       -0.83285376304589        0.04527239827773
H           -5.69281318245502       -2.25519835414048       -0.28292892417901
C           -7.77399151703886       -1.72729091850406        0.36591165894530
H           -8.19403000817589       -1.52165855664799        1.35867297400114
C           -8.89648212629860       -1.65337168296876       -0.67402610916506
C           -7.18740835219070       -3.14737203022851        0.36314386715045
H           -8.48899896510688       -1.80097206161710       -1.67226656372765
H           -9.62656053268188       -2.43118311815362       -0.46850388351913
H           -9.38146723227872       -0.68133085295152       -0.62877099849588
O           -5.93859756070674       -3.19463179247091       -0.08679967232664
O           -7.80027724144010       -4.11548402749733        0.71828930598559
