42
 energy: -62.486133509869 gnorm: 0.000479877729 xtb: 6.7.1 (edcfbbe)
N           -0.84695830480823       -0.29438924022559        0.38770426352122
H            0.07149558037994       -0.47345242512511        0.00092971811319
H           -0.92621550406199       -0.82881563043694        1.24865221534556
H           -2.00905806892245        1.16512466852650        0.82531101012581
C           -1.89882842058649       -0.69692021694123       -0.54447520442506
H           -1.61857030271211       -0.31916719143005       -1.53653525838808
C           -2.12920862418793       -2.20516337829894       -0.62417495376150
C           -3.16499123986903        0.04411479865391       -0.13544087737945
H           -2.41812904396039       -2.59090615371035        0.35140249548855
H           -2.92739532712024       -2.42186165277725       -1.32576494131543
H           -1.22148600780987       -2.70937555566070       -0.95008591509851
O           -2.96834921503537        1.12423498817621        0.63203078510470
N           -4.28644912249423       -0.37608246514918       -0.52338730040264
H           -5.40413801759019       -1.20850492878754       -1.90604992886716
C           -5.51558382523913        0.31654575739582       -0.19323299144652
H           -5.59087377556163        0.49292656784963        0.88397862740390
C           -5.61622943600942        1.66125263406355       -0.93943208705587
C           -6.63195749547171       -0.59704611908644       -0.64550815788223
H           -4.78105417794544        2.28502184668127       -0.61628719811571
H           -5.49730482073209        1.46509247386358       -2.00921322662834
C           -6.93065585694300        2.41276949800429       -0.70892185163999
O           -6.35863077124509       -1.32114581149993       -1.73933013971682
H           -7.76313431102075        1.76263353799661       -0.99601675856349
C           -7.10728387056853        2.81163964051029        0.75362165583093
C           -6.96116650519340        3.65649570010961       -1.59622497225117
H           -6.27234336686451        3.42780272718732        1.08129656427117
H           -8.02525279310638        3.38082087539430        0.87643203290605
H           -7.16642146987717        1.93635457311854        1.39417482787160
H           -6.86244348783540        3.38713308323839       -2.64547108826461
H           -7.90022035650111        4.18873077788481       -1.46776239170499
H           -6.14659009442475        4.32923070140471       -1.33530964710847
N           -7.70624599356197       -0.65621060092220        0.01079868286043
H           -8.91312423561122        0.25868063994577        1.01686431756779
C           -8.80228886888026       -1.50248453914591       -0.40817707563119
H           -8.87457001347337       -1.58083066524841       -1.50040300452492
C           -8.66378303072227       -2.90929041118004        0.18322522091409
C          -10.09722054268303       -0.87495225158309        0.12805287179361
H           -8.54634832525549       -2.84637936373949        1.26313797063830
H           -9.55528654647917       -3.48586654771066       -0.04655441992974
H           -7.79238454223706       -3.40332089656777       -0.23955845438086
O           -9.89004936731128        0.13333090314632        0.96698104784274
O          -11.18946176043561       -1.26979620248602       -0.17234146514605
