42
 energy: -62.486133506836 gnorm: 0.000480712884 xtb: 6.7.1 (edcfbbe)
N           -1.60832874839788       -0.47834857738116        1.00819521400111
H           -0.79728733478511       -1.07822129770407        0.91426409512207
H           -1.83349668819948       -0.42494569389385        1.99798985996488
H           -2.26666808814233        1.20588334241702        0.31799087512985
C           -2.75006873652635       -1.03083973013504        0.27648910227284
H           -2.39740433068583       -1.25576030071057       -0.73958249729313
C           -3.35885286633266       -2.28873347280919        0.88659645423903
C           -3.77018782085169        0.09231803649184        0.13777164330961
H           -3.74079890221067       -2.07855661220059        1.88224633753367
H           -4.18385118751494       -2.62850479294369        0.27156016281844
H           -2.61106002462154       -3.07671118085277        0.95081429164824
O           -3.21391881184491        1.32448090338188        0.10315581010934
N           -4.98716395897489       -0.19473912864839        0.07740284798926
H           -8.11308021918365        1.32871502617068       -1.40166014222280
C           -6.08099792442740        0.72404661888416       -0.11288724911039
H           -6.30735253506756        1.18005146789437        0.86302934631274
C           -5.84576933333962        1.84522213485440       -1.14776192234132
C           -7.27828015984913       -0.14162704204228       -0.48041008086760
H           -4.77729325327103        2.04692110159415       -1.19789259831525
H           -6.14350507297928        1.48569150729691       -2.13792659500593
C           -6.55708532325160        3.16723891434836       -0.81277054996825
O           -8.29585643342912        0.40734199442123       -1.17843087215679
H           -7.56372486575517        2.97130914290977       -0.41814585697319
C           -5.78212174684853        3.93170923825471        0.25855843079225
C           -6.69113464208971        4.02230851961507       -2.07222483941096
H           -4.79562158621949        4.20002643034243       -0.11195607922076
H           -6.30880150169776        4.84248399374757        0.53446684185762
H           -5.65304472726248        3.32675816520339        1.15268975233906
H           -7.28157010661906        3.51576694274657       -2.83404253455781
H           -7.17489628121000        4.96851438198247       -1.84107236632243
H           -5.70827093570010        4.23353638802234       -2.48736390350327
N           -7.29147432765782       -1.32985930142153       -0.07622183034657
H           -6.47483736796514       -2.55879135111803        0.88356831884256
C           -8.35815199353732       -2.26581666101593       -0.32073489883567
H           -9.32903512521225       -1.86578802154946       -0.00018832346999
C           -8.45964834470348       -2.68441415153757       -1.79106479372378
C           -8.03486179562598       -3.51095706192063        0.52710817110791
H           -7.48785772836447       -3.02135303277969       -2.14631702708508
H           -9.17392679340949       -3.49810349863955       -1.88109094878632
H           -8.78839634689215       -1.84442614398729       -2.39736945076796
O           -6.85248331609526       -3.44665126779893        1.12105075925105
O           -8.77802401742451       -4.44920211241150        0.62110279747121
