42
 energy: -62.486133494582 gnorm: 0.000483248772 xtb: 6.7.1 (edcfbbe)
N           -0.86319067934430       -0.12998724580702       -1.06692865751633
H           -0.16875410743717       -0.58010678434442       -1.65049233516071
H           -0.48055977914585       -0.06572749523733       -0.12762565985148
H           -2.01913035649007        1.39480798376884       -1.11904605249524
C           -2.10844122137692       -0.89512251122762       -1.04702621127436
H           -2.34414577001537       -1.15980972407011       -2.08590929880405
C           -2.06149398713770       -2.16879288912201       -0.20597050592226
C           -3.21450865135295        0.05237787242529       -0.58806227320253
H           -1.84575022560022       -1.92591486780341        0.83279883545514
H           -3.02196415208852       -2.67041996054522       -0.25349952133477
H           -1.29054002994695       -2.84008267787816       -0.57920258903826
O           -2.93528441156249        1.35179474264487       -0.77425434517002
N           -4.26012416534269       -0.44408371041269       -0.10365506234503
H           -5.36098932571040       -1.89085235528041        1.26024143345379
C           -5.44447391613928        0.26680743478837        0.33755683837827
H           -5.30855973362143        0.50364251241421        1.40348030103443
C           -5.81168131749815        1.53928108736760       -0.43039518785662
C           -6.51424113192720       -0.80466902365372        0.22808852522107
H           -4.95154058611040        2.20789148322689       -0.43574610672390
H           -6.02389228241020        1.25197053765039       -1.46143571827278
C           -7.01586157125250        2.28486492782429        0.15761503823458
O           -6.27856787864753       -1.91620872835683        0.95330621712810
H           -7.80755765385633        1.56205171981634        0.37388538957768
C           -6.64577346524485        3.00912550073458        1.45073804126351
C           -7.54164479905184        3.29042689533396       -0.86528679372148
H           -5.84956154351547        3.72809817139083        1.26802445585279
H           -7.50723728233762        3.54542601638807        1.84223936322533
H           -6.31080352154133        2.31251558786092        2.21558733777732
H           -7.86382959676178        2.78731152768287       -1.77368531191107
H           -8.38940014531168        3.83793047673934       -0.46007898147209
H           -6.76446669637449        4.00628540649157       -1.12494654055116
N           -7.47160655916044       -0.68615661714606       -0.57775874987683
H           -8.27210030323767        0.21539953767218       -1.91383870131752
C           -8.45342272671169       -1.72660310838152       -0.77280808919044
H           -7.98558007444849       -2.71317943356740       -0.88299471000601
C           -9.46042595326362       -1.78377787160697        0.38116165361028
C           -9.21405048835802       -1.38381130256819       -2.06333640084523
H           -9.91096165063623       -0.80430084001618        0.53050873473508
H          -10.24066626675630       -2.50079108331687        0.14212676640165
H           -8.95674656996501       -2.08679437944127        1.29562508081645
O           -8.95386432464444       -0.16451037214529       -2.51886629612176
O           -9.98279635980637       -2.13833227707583       -2.59119881558100
