42
 energy: -62.486133497329 gnorm: 0.000480755177 xtb: 6.7.1 (edcfbbe)
N           -1.97346028022264       -1.59874825537902       -0.94379369767513
H           -1.82625993517956       -1.19147546835263       -1.86125963268545
H           -1.89153185991818       -2.60493849938549       -1.02990171769493
H           -1.33889640576394       -0.29925097856319        0.25617108738311
C           -3.28159335309445       -1.22492452485113       -0.40357412488036
H           -4.07200026338592       -1.26056241026825       -1.16212816753196
C           -3.64270709152535       -2.16440681275910        0.74881584295490
C           -3.14187341587565        0.18477465285255        0.19905344304749
H           -2.85425796799887       -2.14863840210101        1.49834435777057
H           -4.57222394970387       -1.84382274102562        1.21128533461523
H           -3.76212693292753       -3.18378660092310        0.38578006301003
O           -1.88385543786825        0.45809478453370        0.56215439206859
N           -4.01641605718015        1.03229979449899        0.50448173739850
H           -5.47237156470449        0.48688305262727       -2.16731661247420
C           -5.40223516437300        1.17194851210089        0.18417655916735
H           -5.88884804538685        1.35734698838121        1.14964853093985
C           -5.53976640796607        2.44242181192108       -0.67923850397780
C           -6.14448626490567        0.00586740447798       -0.43684313554023
H           -5.09165256472253        3.25703007927332       -0.10965357027811
H           -4.93691747824909        2.33217306525021       -1.58793158429010
C           -6.98122041320808        2.80776911056944       -1.05526359497096
O           -5.98764062945132       -0.22435255460677       -1.76411495714368
H           -7.43007485035729        1.98781275592114       -1.62839240607940
C           -7.84317510223946        3.04971781135689        0.18121433392114
C           -6.96662771683608        4.05507389662171       -1.93838669282102
H           -7.37760885690701        3.78786864372767        0.82997299935702
H           -8.82150577436179        3.42076366375460       -0.11481615637680
H           -7.98943733834841        2.13114728700299        0.74316496465332
H           -6.36436034827431        3.89636980086384       -2.83073709349831
H           -7.97606914598165        4.31080527204990       -2.25049306977557
H           -6.55221540441574        4.89857859006955       -1.39118590394362
N           -6.92383014528172       -0.67278835651786        0.28279375129510
H           -7.95184163526423       -0.78208555512259        1.80350225428590
C           -7.74611371095143       -1.73023250769315       -0.26051007520112
H           -8.12035536122214       -1.47855682825474       -1.26133309452464
C           -7.00389348667301       -3.06830918135644       -0.33692458679074
C           -8.94305287008812       -1.90681529087194        0.68696776533939
H           -6.60920039085768       -3.33436728203576        0.64130926534795
H           -7.69743251147787       -3.83927160523156       -0.66082224548416
H           -6.18455051321716       -3.00018304091945       -1.04811695027014
O           -8.80364204008537       -1.27238817769641        1.84495428020481
O           -9.89879389104516       -2.57492091485094        0.40982583009105
