42
 energy: -62.486133511195 gnorm: 0.000479862300 xtb: 6.7.1 (edcfbbe)
N           -2.46086381043985       -1.19142455846841       -2.03481968091636
H           -2.60425802452046       -0.51736037408988       -2.77995148655637
H           -2.50939411318298       -2.11761075156691       -2.44394450050921
H           -1.38154150889713       -0.27047095640058       -0.79983846784388
C           -3.48523669633246       -1.03757369805848       -0.99860314317333
H           -4.48537308425098       -0.86405627950282       -1.41139134681618
C           -3.49615354951295       -2.29273739705342       -0.12399528898366
C           -3.06914819294458        0.16332169865872       -0.13913890069887
H           -2.49065150155303       -2.49972932722424        0.23708506761249
H           -4.15120598918390       -2.16141042401426        0.73223929707517
H           -3.84858952265066       -3.14737877798264       -0.69871130217707
O           -1.74627181129462        0.35393755688590       -0.13446798935954
N           -3.75449704291240        0.96175747885738        0.55064431051173
H           -5.67782566779527       -0.38533310662676        2.63242071763604
C           -5.16555875668619        1.07856712475464        0.77395015187309
H           -5.24787070518751        1.50459583718232        1.78537153209403
C           -5.72311842219127        2.10014311507958       -0.23592141068374
C           -5.98144749516721       -0.19712736601276        0.74004103156732
H           -5.05640139208929        2.96326686897395       -0.23545695434391
H           -5.68050640207194        1.64010574610558       -1.22413470614604
C           -7.15775471800926        2.54901885797134        0.06101932800793
O           -6.13778791468173       -0.84555245658164        1.91830037033294
H           -7.76318071243125        1.66310172781864        0.28246505014532
C           -7.21396443596851        3.49633882615813        1.25730138751909
C           -7.74377673636182        3.23672428382557       -1.17097341748952
H           -6.61821014861219        4.38510624663606        1.06156071145893
H           -8.23957324773299        3.80573808497654        1.44529435388780
H           -6.83540433541494        3.02317640849875        2.15976837506836
H           -7.76511324593276        2.55780791320393       -2.02021836978389
H           -8.76013134000457        3.56946609770134       -0.97399764062329
H           -7.14502615981320        4.10424076557016       -1.43913856779898
N           -6.42353298461878       -0.65856149489645       -0.34548137325374
H           -6.71967324548929       -0.57122391304564       -2.18770759313203
C           -7.12962612235272       -1.91746672288544       -0.41733189078332
H           -6.69829119810581       -2.67905116076238        0.24287426409990
C           -8.61393054543547       -1.74033334660828       -0.07449349291014
C           -7.03433624172099       -2.38588876776966       -1.87361071262619
H           -9.05743509276540       -0.97559828129860       -0.71002256984450
H           -9.13681180210831       -2.67993987155462       -0.22934036806761
H           -8.71597037453241       -1.43994812354196        0.96567125836413
O           -6.83813698135317       -1.38327791319841       -2.72833262397557
O           -7.14260854758182       -3.52894046020660       -2.21549514584129
