42
 energy: -62.486133499157 gnorm: 0.000481705960 xtb: 6.7.1 (edcfbbe)
N           -1.40703295677010       -0.83890544160194       -0.78505397785711
H           -0.97136896552745       -0.55329065914898       -1.65234973662814
H           -1.36662686188547       -1.85246987098735       -0.73658661381208
H           -1.25494439420009       -0.42478499738684        0.94279563231386
C           -2.80132125466840       -0.38644601587540       -0.70565985057372
H           -2.87633152090764        0.57209347939047       -1.23433970953050
C           -3.75028976811641       -1.38997617593444       -1.35952140256654
C           -3.07471377520675       -0.03719003438982        0.78567031202530
H           -3.82963922258246       -2.29769265537770       -0.76367640887206
H           -4.74098573899403       -0.97196804911110       -1.49886527210090
H           -3.36450849580212       -1.65621476520664       -2.34355404668104
O           -1.99194282172326       -0.17612320829773        1.55081984332347
N           -4.06502186597112        0.51784554298586        1.33324160201217
H           -4.88419187816901       -1.53944083600377        1.72927772684185
C           -5.44222432823246        0.63154959136607        0.94130208159245
H           -5.97005773705391        0.89408935541921        1.87077716817459
C           -5.66794470015997        1.76316106230033       -0.08012479635291
C           -6.03426098184198       -0.68032366253541        0.47361015568692
H           -4.92627969513755        2.54038523237053        0.11551370051999
H           -5.49004581117939        1.36991624477047       -1.08241168786366
C           -7.07115138918546        2.37965879898829       -0.01107539958083
O           -5.58120872404016       -1.78586079112696        1.10175967607291
H           -7.79653329343456        1.57071625327477        0.11429920496443
C           -7.19280341539201        3.33774409094207        1.17192185868406
C           -7.38037346697806        3.12144600009955       -1.31047793605344
H           -6.50924943150870        4.17548823629359        1.05113310722441
H           -8.20512009665739        3.72943705868782        1.23803671280150
H           -6.95922462299978        2.84148584210641        2.10998168980839
H           -7.34874593858774        2.44942920169125       -2.16469200087755
H           -8.37114016951934        3.56675883381332       -1.26570864021073
H           -6.65611720862846        3.91736495075551       -1.47115130093425
N           -6.95974839049747       -0.69383051380022       -0.37949438130592
H           -7.77685554758957        0.10961879772379       -1.82393469353004
C           -7.58734843227433       -1.91907343693480       -0.81702170666634
H           -6.90287301569397       -2.77592369699634       -0.79757716276790
C           -8.81402684637183       -2.23755365321609        0.04498997591600
C           -8.06555212380160       -1.68657859267570       -2.25732391998597
H           -9.49419368247719       -1.38818880205445        0.05385731155558
H           -9.32827435031541       -3.10249873888028       -0.36459041362326
H           -8.50228555692312       -2.45173416919637        1.06442326016478
O           -8.11864823167069       -0.40173906894604       -2.59302546939238
O           -8.37499070707587       -2.57614344140498       -2.99883144415185
