42
 energy: -62.486133511367 gnorm: 0.000480371357 xtb: 6.7.1 (edcfbbe)
N           -1.45627431332991        0.03406456596564       -1.08471013979529
H           -0.52400670346666       -0.36595384392477       -1.11263751254163
H           -1.59903541931978        0.44431192811541       -0.16796317199072
H           -4.36641159637356       -0.74543009965347       -2.82536510283941
C           -2.45269410895499       -1.00208591823723       -1.29918835836829
H           -2.39924128901072       -1.28803306511226       -2.36026245241548
C           -2.25351075390457       -2.25730024555154       -0.43478967675401
C           -3.81663340111316       -0.41012973774306       -1.00351738708287
H           -2.30406212139221       -1.98259172245272        0.61594638742911
H           -3.02824678298472       -2.99194341110611       -0.64121684714878
H           -1.28376882025731       -2.70511350657293       -0.64303682178498
O           -4.72034144562745       -0.37963533067376       -2.00379218548608
N           -4.02336912704846        0.00950298294310        0.16433457328013
H           -5.65353268867315       -1.11411212607419        2.29558907283933
C           -5.28382045760624        0.57645216553506        0.61026743574578
H           -5.10244430655039        0.87065158938518        1.65383694756615
C           -5.72218989722117        1.80345887512255       -0.19543331965688
C           -6.31547997037004       -0.52906395943954        0.58800256811867
H           -4.87756859035454        2.49402563099762       -0.24622772522890
H           -5.95877215811776        1.47468726789883       -1.20593877479479
C           -6.94151445271130        2.51530217210681        0.39950629742396
O           -6.34479400272188       -1.34997759624985        1.66483169294366
H           -7.70435835151743        1.76247810007374        0.62396938574073
C           -6.59469667066903        3.26758672671053        1.68279683861670
C           -7.51324985681717        3.48769290607504       -0.63062691717767
H           -5.81400191085281        4.00096000392799        1.49152565124956
H           -7.47027267762506        3.79148239570839        2.05951964301574
H           -6.24872991096681        2.59314091424508        2.46212158773218
H           -7.80767863633461        2.95957047172475       -1.53388606658585
H           -8.38706037116470        3.99700609171029       -0.23095344634460
H           -6.77083130456385        4.23732992035115       -0.89576541038763
N           -7.04235546605445       -0.69665805069503       -0.42285242008951
H           -6.91021279265469       -0.70317365412902       -2.25148152227194
C           -7.98208756940490       -1.78233124311935       -0.53924891747920
H           -7.69721114560277       -2.65941489018212        0.05793032879499
C           -9.38295351104515       -1.32320130303031       -0.12077778231089
C           -8.02546683702191       -2.19105657422735       -2.02014954031958
H           -9.65336223893709       -0.42089687814129       -0.66495505533128
H          -10.10031683036354       -2.10677001387625       -0.34761449251657
H           -9.40188941201717       -1.11287264464169        0.94611996719740
O           -7.34039479209202       -1.38501053187709       -2.82146206463067
O           -8.63134853365998       -3.14897386925269       -2.41350979636762
