42
 energy: -62.486133516538 gnorm: 0.000479469661 xtb: 6.7.1 (edcfbbe)
N           -1.09500825375832       -0.57483128670396       -1.28873849171242
H           -0.47141955856680       -1.24837833106049       -1.71701488657184
H           -0.62286018576199       -0.19597482588747       -0.47229224951077
H           -2.23345065067934        0.89144424326410       -1.79516169554950
C           -2.35041988235252       -1.20710760573715       -0.88578336562019
H           -2.70381246362217       -1.79993986106629       -1.73900947230320
C           -2.24657668034989       -2.10898371511759        0.34089576214410
C           -3.38023287181520       -0.09682483551386       -0.68858813617056
H           -1.87041654656184       -1.54366941807217        1.19114753347454
H           -3.23245742445169       -2.48577436341896        0.58894278553595
H           -1.57673101232614       -2.94424357823391        0.14563701490238
O           -3.10099218778181        1.03104492620776       -1.36394889118744
N           -4.36806679403349       -0.33140440130817        0.04616003788605
H           -6.95404266595080       -0.10714713728111        2.18009761295063
C           -5.48603256521280        0.53697786897070        0.32142804882114
H           -5.34661266809515        0.88926542139468        1.35487248685197
C           -5.70788936301969        1.73873625769633       -0.61034802837095
C           -6.70724493243421       -0.35969776636899        0.26347318544461
H           -4.83214760671495        2.38647360138531       -0.57606199067596
H           -5.80463216836874        1.34250607031865       -1.62150038718949
C           -6.95908436847626        2.55555538002403       -0.26589499650351
O           -7.41013434061667       -0.52899798218353        1.44236781026145
H           -7.81516599716629        1.87785726098154       -0.17294213828886
C           -6.79536302478229        3.32778406745828        1.04251390593852
C           -7.25493175254371        3.53011621552004       -1.40402621680076
H           -5.94953495686509        4.00893433259408        0.97393394563395
H           -7.68934422462251        3.91240602366600        1.24750617297444
H           -6.63103675383917        2.66404010782058        1.88867753412586
H           -7.42924187068922        2.99007210755471       -2.33094486623217
H           -8.14060105786578        4.12028758076030       -1.18025429439986
H           -6.41632354874118        4.20756908079113       -1.55076118030758
N           -7.01040466489479       -0.89678148127672       -0.82217160509378
H           -9.06331559376067       -0.47267114771924        0.69369478386672
C           -8.10274082452687       -1.79886821440937       -1.07732202691118
H           -7.93933581409390       -2.16949898487694       -2.09589764799047
C           -8.18172201835159       -2.99245085431626       -0.11574621483146
C           -9.46007264280442       -1.07894710190990       -1.08722244965377
H           -8.41749501002911       -2.67559646443570        0.89776105803917
H           -8.94903997379719       -3.68250917474921       -0.45782012806696
H           -7.22257920551468       -3.50509857701483       -0.10315484668607
O           -9.76771087423791       -0.40597538384335        0.02196290683210
O          -10.20996625904428       -1.13172383151828       -2.01953129169285
