42
 energy: -62.486133500048 gnorm: 0.000481764042 xtb: 6.7.1 (edcfbbe)
N           -0.95384399792197       -0.10810533074749        0.96426704741241
H           -0.13051133038052       -0.67954277647670        0.82005279596581
H           -0.94037234580054        0.21082552289253        1.92915932743579
H           -1.88098540775330        1.33263069124619        0.11274868404737
C           -2.17462617423641       -0.87156344376533        0.70850483118912
H           -2.02222327644535       -1.43200857804062       -0.22244092800852
C           -2.56512261354458       -1.84397129461882        1.81903711064201
C           -3.28686116603123        0.13151407080961        0.42349080375349
H           -2.68834663886827       -1.30983397732137        2.75960952192231
H           -3.50679424129948       -2.31839167472338        1.56485247456601
H           -1.79946265025153       -2.60681626527816        1.94438460517361
O           -2.85908165787069        1.35080963451715        0.05639034728120
N           -4.48093715932107       -0.23969872332361        0.53804757554997
H           -6.38686000783995       -0.40681911943488        2.27498148802922
C           -5.62796709620016        0.60055561828337        0.24459264098997
H           -5.69803336910223        1.39377324954469        1.00410885182769
C           -5.58869003669477        1.23212289142069       -1.15199715449741
C           -6.79653244215170       -0.34883757794752        0.41170937309661
H           -4.68350995251144        1.83473693036656       -1.23009831101079
H           -5.52149503533051        0.41884687806148       -1.87620529645599
C           -6.80226861554300        2.10970819014069       -1.47630073181330
O           -7.08203960947920       -0.71440994763595        1.68021307562243
H           -7.71301433045450        1.54729203156744       -1.25130551672120
C           -6.80308675568938        3.39657991939610       -0.65349443826261
C           -6.79705797996902        2.44679488098614       -2.96643585159050
H           -5.88186584199589        3.95222121501520       -0.81692519441269
H           -7.63981723800808        4.02803478657065       -0.94365539848043
H           -6.89634297919049        3.18866591373364        0.40962322964680
H           -6.83977590712057        1.54143402673013       -3.56689198674404
H           -7.65466053619094        3.06541612718728       -3.22023587971787
H           -5.89245101467218        2.99185032957977       -3.22804780554914
N           -7.37819933859366       -0.83536559017495       -0.59059099101618
H           -7.45098720265049       -1.07868171341628       -2.36993065127510
C           -8.43180847769702       -1.81563205254298       -0.47443366067822
H           -8.17602906763611       -2.60641889412442        0.24197536259927
C           -9.75991035595186       -1.17722403512249       -0.05259715425278
C           -8.61596779945558       -2.43971226932222       -1.86667227159979
H          -10.01468398088185       -0.36551555039884       -0.73148431071513
H          -10.54520134391626       -1.92706484768352       -0.08568720697600
H           -9.67664413697045       -0.78348297377917        0.95722103166302
O           -7.95470070138129       -1.79783672269290       -2.82184555857218
O           -9.30742148042003       -3.39890519373857       -2.06875904149143
