42
 energy: -62.486133513560 gnorm: 0.000479414692 xtb: 6.7.1 (edcfbbe)
N           -0.83346897090449       -0.15700990205623       -0.83694734628872
H           -0.11866428436970       -0.49123902954811       -1.47178734774510
H           -0.54074095148774       -0.39834791666967        0.10605939197278
H           -1.89326151034627        1.42620531764014       -0.50825432968680
C           -2.12397262656857       -0.78024671180648       -1.12950621369034
H           -2.28653929856930       -0.69547955208885       -2.21195065954204
C           -2.23784231932237       -2.24645600757264       -0.72054786670706
C           -3.19780952624673        0.07633447690803       -0.47255654794644
H           -2.03884273146692       -2.35635669061788        0.34376619230841
H           -3.24497145262516       -2.59603377938084       -0.92010058739941
H           -1.52736345160620       -2.85356380034400       -1.27760268700584
O           -2.83528446642491        1.35263549510325       -0.25334437708648
N           -4.30755790470710       -0.44034406309003       -0.19317473834276
H           -5.67198660382202       -1.51532038162756        1.92396516413266
C           -5.42364319415492        0.30167509794424        0.36471984826326
H           -5.17734561312725        0.61909671180304        1.38904915291012
C           -5.80799777498807        1.52790849159582       -0.47346271831340
C           -6.53762532954180       -0.72368515226476        0.41066364824527
H           -4.94822904259864        2.19695096560549       -0.51460527691900
H           -6.01736806111254        1.17696263268024       -1.48504739404989
C           -7.01783935973291        2.30081868995316        0.06084504971852
O           -6.49463293172676       -1.61089148571716        1.42900618775981
H           -7.83681708056211        1.59662407846333        0.23451882851544
C           -6.69599184172310        3.01539758973826        1.37173546188644
C           -7.46752057869964        3.31669598294814       -0.98795304506009
H           -5.84808947966397        3.68468789541362        1.24054128128660
H           -7.54985131501418        3.60457335551801        1.69858183827404
H           -6.45777356708131        2.30779251874079        2.16211783958710
H           -7.74830817636516        2.81732476160065       -1.91192793927612
H           -8.32571485225610        3.88030423437576       -0.62974081494637
H           -6.66407097839455        4.01743058261507       -1.20508764705034
N           -7.38584729952707       -0.78548831223031       -0.51445314537341
H           -7.91873129991173       -0.26855310236152       -2.14392888625239
C           -8.40808268067235       -1.80340866243652       -0.56594162534889
H           -8.00173275137330       -2.80028036732124       -0.35342289439689
C           -9.55123004978006       -1.51718020364278        0.41418448690372
C           -8.97879683995319       -1.78886638749465       -1.99330681209948
H           -9.94884841747590       -0.51886294458325        0.24143001651207
H          -10.34318773648952       -2.24512385916557        0.26251274964937
H           -9.18848382527989       -1.58393148096869        1.43676008205352
O           -8.55733004674473       -0.75924064457317       -2.71642469344187
O           -9.74679503314273       -2.61553427846896       -2.40044652400135
