42
 energy: -62.486133519890 gnorm: 0.000478800149 xtb: 6.7.1 (edcfbbe)
N           -1.22458009719771       -1.39410227605708        0.19589141563180
H           -0.31195429350866       -1.53887945181520       -0.21920124358786
H           -1.57109015576806       -2.30329859458809        0.49138469413198
H           -2.14331097690723       -0.29058927727993        1.47218139211923
C           -2.15050855765386       -0.80912516556994       -0.77551198876480
H           -1.62858353006898        0.02639915897837       -1.25966697770783
C           -2.65684469485434       -1.77647202548755       -1.84217098240651
C           -3.30971296816447       -0.20750079510642        0.00477198261562
H           -3.11762517139187       -2.64200225385998       -1.37085716081444
H           -3.41205061173384       -1.27997519381996       -2.44094681160362
H           -1.83924435754663       -2.10918228541123       -2.47859365899169
O           -3.04891366108350        0.04017641342431        1.30747686700512
N           -4.38891734846271        0.03480612497689       -0.58581724384486
H           -7.35377082996266        0.60445885220641        1.64444662875531
C           -5.50146598632988        0.64402389974578        0.09281424417253
H           -5.26665648873464        0.87952084532118        1.14440832036283
C           -5.84012862763664        1.93145536528315       -0.68828526262645
C           -6.67424748735244       -0.30410710403070        0.05385098010620
H           -4.93565760057517        2.54326822654769       -0.71350128153380
H           -6.05881926189598        1.61944076881401       -1.71038067265609
C           -6.99923366277954        2.77221667867163       -0.14405515424730
O           -7.62599289909968       -0.10094198527297        1.04468195260827
H           -7.88893718689233        2.14297903700072       -0.03343777077866
C           -6.65759653356326        3.40939784997534        1.20321131347726
C           -7.33972286228351        3.86687434036810       -1.15480391624721
H           -5.81296757755059        4.08593184250443        1.09095728185439
H           -7.50451602576155        3.98086917830695        1.57697594541659
H           -6.39225836115665        2.66935894992874        1.95626575241363
H           -7.64203797180311        3.42984214635428       -2.10302058025487
H           -8.15583514352318        4.48404436486454       -0.78615701335966
H           -6.47656526167847        4.50564337487660       -1.32895027510603
N           -6.74556254826589       -1.19253249681185       -0.81781747814760
H           -9.05802897495401       -0.37109589536478       -0.02831879548612
C           -7.78267688234701       -2.17470067612420       -0.98859702271546
H           -7.41095978222107       -2.85566501915766       -1.76296320688459
C           -8.11048938166298       -2.98257709989629        0.27537350228164
C           -9.08614691266830       -1.56696774711041       -1.53068480554648
H           -8.54024459792283       -2.35323756329682        1.05171164653693
H           -8.81717404598822       -3.77088278888068        0.02808451003192
H           -7.19851463947318       -3.43291847509659        0.66093268626325
O           -9.60357214285641       -0.57013762051510       -0.81271903788384
O           -9.62307515281656       -1.97584167446071       -2.52002769986256
