42
 energy: -62.486133503910 gnorm: 0.000480954435 xtb: 6.7.1 (edcfbbe)
N           -1.11436983181657       -1.43641708423715       -0.04900599454922
H           -0.71347182675110       -2.32274501133527       -0.33332503046529
H           -1.03394288859318       -1.37519997931707        0.96239759238704
H           -1.07906155826118        0.45320803288785       -0.45080206615690
C           -2.51941817669741       -1.34616307393858       -0.43789046823027
H           -2.58082913277498       -1.63135273529639       -1.49681420110204
C           -3.46475872074181       -2.22486989906801        0.37963612123131
C           -2.93328618660134        0.13720659035595       -0.34943934486572
H           -3.39927198969190       -1.96375908166325        1.43452126899134
H           -4.49002325282214       -2.07390839094206        0.05675786759955
H           -3.21064903710399       -3.27641015278517        0.25979479338644
O           -1.89168700275793        0.99648015632931       -0.43242068427424
N           -4.09456818152129        0.51946002679452       -0.23434207998899
H           -5.29753737577516       -0.08858955082948       -2.25443425711630
C           -5.41445612211643        0.95102040139265       -0.11692268533837
H           -5.62717068097909        1.07050661659318        0.94971990328196
C           -5.65857170078534        2.29189028850008       -0.84488353217532
C           -6.33994907307668       -0.12587660457009       -0.66338141357668
H           -5.00154208533943        3.03793919000424       -0.39540306638762
H           -5.35649425679949        2.18222036008209       -1.89068406749963
C           -7.11279868521626        2.77129988538417       -0.79098283274936
O           -6.06904811552253       -0.55973754026707       -1.91132660206019
H           -7.75671830606092        1.98983812646661       -1.21051384585313
C           -7.56418254497151        3.05003196103128        0.64023170728506
C           -7.26335412761251        4.03079911567122       -1.64297693927394
H           -6.89859913128444        3.76826521517637        1.11435712281982
H           -8.56988563512324        3.46294988171085        0.63999626648994
H           -7.57688417276254        2.13864018749947        1.23133290805791
H           -6.97036251081940        3.84072634410520       -2.67323493942432
H           -8.29612588809966        4.37030778755308       -1.63957445401861
H           -6.63797898260209        4.82945225305672       -1.24999284095888
N           -7.26311398581041       -0.59301364410948        0.05359043044736
H           -8.41201652997712       -0.37394512549854        1.44467352902593
C           -8.15183149836004       -1.63025749597704       -0.42608465454489
H           -8.45251681168805       -1.45997847382634       -1.46768108740018
C           -7.51241457032392       -3.01877837254297       -0.31926951349551
C           -9.40780748968412       -1.60243147070064        0.45837922929875
H           -7.14455911743834       -3.18184539726409        0.69194934303893
H           -8.25818761710880       -3.77339227584592       -0.55286186683842
H           -6.68426128003515       -3.10257012525884       -1.01888772051485
O           -9.29837639633659       -0.79898901296547        1.50961309418445
O          -10.38379827217923       -2.25923724570853        0.22636645381827
