42
 energy: -62.486133490785 gnorm: 0.000483754140 xtb: 6.7.1 (edcfbbe)
N           -0.93687322882206       -0.90528762903873       -0.05592141924806
H           -0.46482214992715       -0.00824315118970       -0.00882197399955
H           -0.27070348927263       -1.58993691136446       -0.39324814174218
H           -2.22176468140294       -0.79517487398654        1.34847275712073
C           -2.10009051000462       -0.83422675257227       -0.94089107042632
H           -1.94932463430063       -0.19836787179448       -1.82314914059479
C           -2.49888648218462       -2.23706264485121       -1.40091355840625
C           -3.24418177236128       -0.26010448123123       -0.12832728429029
H           -2.65523393882777       -2.88490377128519       -0.54080317198407
H           -3.41964309151534       -2.18081962103737       -1.97376185377356
H           -1.71934299822307       -2.66633937074937       -2.02659328884316
O           -3.12275414182814       -0.43182722408539        1.21156178412818
N           -4.22548005301427        0.26721844291297       -0.70608364255796
H           -5.14442400714109       -0.92780685599423        1.73641544121067
C           -5.33755238212146        0.79072300563924        0.06828639889688
H           -4.99937936927131        1.15522078280415        1.04984122040134
C           -5.97664883455388        1.92012973384341       -0.74110480822141
C           -6.26595094789060       -0.38398394828312        0.27564002912937
H           -5.22309124916389        2.69678305055280       -0.88522327386459
H           -6.22504133345006        1.51073695963409       -1.71960692690246
C           -7.22789489920971        2.52910976496024       -0.10211761127237
O           -5.98286182408395       -1.18590701873841        1.32494441023524
H           -7.92149815208437        1.71879155205895        0.14109828306498
C           -6.89621802941397        3.29270168575964        1.17857475133169
C           -7.90578317726114        3.46191258728819       -1.10395852720802
H           -6.16471012379234        4.07289481522462        0.97723841649929
H           -7.79216486431987        3.76074792948728        1.58011272280944
H           -6.49494610014593        2.63112541246189        1.94218301145126
H           -8.18309448229855        2.92113185431643       -2.00519002369553
H           -8.80580136810196        3.89486866458598       -0.67375242621138
H           -7.23491585359703        4.27224709332306       -1.38140807245163
N           -7.17484563577256       -0.63371939897430       -0.55684760528046
H           -7.86535377455830       -0.38261460931679       -2.20318608854050
C           -8.01975205532604       -1.79852774084524       -0.44628898425544
H           -7.45521338865556       -2.69176578963461       -0.14917288154142
C           -9.15553618607085       -1.57477606724547        0.55847111751409
C           -8.63922992999716       -2.03556069460724       -1.83227374842746
H           -9.70817780596915       -0.67358333930915        0.29987393893263
H           -9.83064237890256       -2.42545902178252        0.53229732488491
H           -8.74757057440478       -1.46652444360749        1.56046394852155
O           -8.43304224174994       -1.03528078953985       -2.67899473785915
O           -9.26574911021939       -3.02056512965970       -2.10890015187631
