42
 energy: -62.486133514175 gnorm: 0.000479539558 xtb: 6.7.1 (edcfbbe)
N           -2.37299874518876       -0.45255084366447       -1.95835407000421
H           -2.38606123236782        0.50466093640969       -2.29575306402324
H           -2.43395352700102       -1.06646985647620       -2.76280870696546
H           -1.38721710727832       -0.41347593195989       -0.28526223411586
C           -3.48951234195370       -0.69461470298859       -1.04351031059453
H           -4.44912931754795       -0.31463519148081       -1.41580407620428
C           -3.60067229490303       -2.20226187309097       -0.79971436833911
C           -3.11779385563811       -0.01163213195522        0.27794483258940
H           -2.63116640499162       -2.60441182382508       -0.51226401268311
H           -4.31247717287192       -2.41681232428498       -0.00840973821492
H           -3.93513587635630       -2.70341086644891       -1.70605212579182
O           -1.81075826687556       -0.08332649453519        0.53504540105883
N           -3.84327019658187        0.55861300382995        1.13821879491511
H           -5.31465571724398       -1.13413450715528        2.45280204933925
C           -5.26742326978611        0.79725607137480        1.06076651567099
H           -5.54060121135281        1.13786604349501        2.07109586368475
C           -5.59652623064395        1.92046907288068        0.06788068412531
C           -6.02220003966790       -0.48404549941229        0.79458141612378
H           -4.90227994556341        2.74077109598220        0.26063418098978
H           -5.41442899168739        1.55863981099693       -0.94429174326014
C           -7.03807044529000        2.43403544326154        0.16580884124995
O           -5.91542958773805       -1.42917605911129        1.75511811895967
H           -7.71031025936216        1.57178903331845        0.20929434063317
C           -7.24883269483500        3.28799593976483        1.41392526875176
C           -7.37470049688006        3.25058050849073       -1.08134710951737
H           -6.57963412778742        4.14565311984976        1.40329388411153
H           -8.27254055426582        3.65346370718257        1.45008206585372
H           -7.06358258304313        2.71965317207726        2.32153600740938
H           -7.28765993677610        2.64395604432509       -1.97992075372778
H           -8.39212460746437        3.62978234425082       -1.02408023432852
H           -6.69889624270419        4.09840591193259       -1.17150294532202
N           -6.63860150611697       -0.66438412556234       -0.28742722503706
H           -6.96628616360007       -0.18468478378573       -2.03702072472264
C           -7.29192584598257       -1.90897902264295       -0.61729485745851
H           -6.80490102411271       -2.78191837940681       -0.16687035122091
C           -8.76376522425483       -1.87829729227480       -0.18941800584725
C           -7.24239700898115       -2.02700597300171       -2.14616596129682
H           -9.26114913620075       -1.01062283870843       -0.61881919151747
H           -9.26067681758968       -2.78103554418851       -0.53339519042487
H           -8.82939945799163       -1.82252077011459        0.89462507567728
O           -7.08329081960831       -0.85202304948507       -2.75105168729795
O           -7.35375475722374       -3.06313566084885       -2.73716475710126
