42
 energy: -62.486133513725 gnorm: 0.000479682245 xtb: 6.7.1 (edcfbbe)
N           -1.99497686510121       -2.28872833805102        0.23999300180429
H           -1.90780831067050       -2.34275936073761        1.24941070386064
H           -1.13711593705820       -2.64289399020560       -0.16639653318401
H           -3.89431321656827       -2.49398061007470       -0.09278366638482
C           -2.24309677105957       -0.91314057332809       -0.18880098355894
H           -1.66551896912979       -0.16128540933816        0.36603887650518
C           -1.94200599342887       -0.77505764315565       -1.68132039555035
C           -3.72487172238921       -0.63329990813751        0.01673305755433
H           -2.51513758234907       -1.50640650430456       -2.24717742927477
H           -2.21393005685576        0.22136884031173       -2.01559212878324
H           -0.88273901241889       -0.93569759708393       -1.87132698589261
O           -4.50142730783891       -1.72852432892674       -0.01809937449084
N           -4.08831090911192        0.55434931325327        0.19547472971601
H           -5.86505360348420       -0.09905550592777        2.35757362596147
C           -5.45577660577397        1.01795367666501        0.26786914978029
H           -5.47574014021955        1.71557291036016        1.11860564861814
C           -5.75207069721645        1.79377200331874       -1.02270700967907
C           -6.48054778954507       -0.06589789230399        0.51181339784275
H           -4.89539607815848        2.43909714908393       -1.22417707715158
H           -5.83538780063724        1.06073164423945       -1.82470091181106
C           -7.03345154283866        2.63091452203135       -0.97201370705260
O           -6.56875943660709       -0.49181239753994        1.82757799603551
H           -7.85345854422992        1.98927264006013       -0.63609620725927
C           -6.90580305742458        3.81818708036105       -0.01997211528961
C           -7.36185865948616        3.12894532416417       -2.37818672859700
H           -6.06716735113797        4.44821570036371       -0.30975655684526
H           -7.81166339843395        4.41923428835034       -0.04813704881523
H           -6.75454784934718        3.49475711006169        1.00685866733071
H           -7.49980693504407        2.29012427237561       -3.05507044216003
H           -8.27699759014355        3.71594627473543       -2.37035961648167
H           -6.55572085456170        3.75328916318679       -2.75840977932734
N           -7.16778262078622       -0.51443694207384       -0.42909464782714
H           -8.38213650851536       -0.63826945326765        1.84041698201676
C           -8.15415831450050       -1.56100023863758       -0.37223756964430
H           -8.40871364957578       -1.77428086328757       -1.41703366582879
C           -7.67697898606698       -2.85359790996655        0.30295077833726
C           -9.44924984543931       -1.09796151183572        0.30982228151160
H           -7.49050395961344       -2.70371910726185        1.36392609682505
H           -8.43145019130143       -3.62665484285111        0.18013362665052
H           -6.75082455094147       -3.17595617458840       -0.16585759430385
O           -9.31286448813315       -0.62395538626030        1.54891127801762
O          -10.52106754702074       -1.17538514607271       -0.21986648454440
