42
 energy: -62.486133509126 gnorm: 0.000480274917 xtb: 6.7.1 (edcfbbe)
N           -0.83972081734825       -0.76691288021138        0.21554680895183
H           -0.00392736092132       -0.85740142548927       -0.34410898232380
H           -0.80056036874897       -1.49088870822787        0.93529602788641
H           -2.21075143029867        0.03950781210011        1.55737300573864
C           -2.04565611346805       -0.94080251684755       -0.59703981829423
H           -1.84383380241320       -0.68185926835423       -1.64208375149057
C           -2.59926528492518       -2.37886357685599       -0.50859018377101
C           -3.15203297923197       -0.04603680851615       -0.05533955698199
H           -2.83055062677442       -2.61677560533782        0.52964364343498
H           -3.50829523500624       -2.47699413301388       -1.09441010776056
H           -1.86465696496146       -3.09412993258246       -0.87484025739257
O           -3.09886981582866        0.24592514674555        1.25495210425425
N           -4.14148329968831        0.22811349775825       -0.79140010627785
H           -5.19679366079119       -0.54551898646959       -2.17284518230040
C           -5.39000888831900        0.71086147354595       -0.25394128611663
H           -5.42106350147447        0.71790343143318        0.83727568202783
C           -5.67992892199679        2.11741216165488       -0.82306427141213
C           -6.41020514792519       -0.27872403593266       -0.78781157421588
H           -4.95024173640577        2.80630329204172       -0.39158754920721
H           -5.50602035550250        2.08498758026761       -1.90277047783858
C           -7.10001458630983        2.63342317142522       -0.55790604722356
O           -6.09012103405216       -0.86868987291671       -1.94757979751655
H           -7.81688022726202        1.89883445143693       -0.94098957194783
C           -7.36032476390424        2.83419403669189        0.93264232457287
C           -7.32331618843750        3.94986929712358       -1.30676980779893
H           -6.67054285587215        3.56829974657026        1.34368298316525
H           -8.37533502391024        3.19255751408634        1.09195898085706
H           -7.23895835064098        1.90095810025099        1.47669080668235
H           -7.15952784048637        3.82558915140964       -2.37594962614643
H           -8.34484626163212        4.29602473485119       -1.15588024045063
H           -6.64662659792866        4.72222056015953       -0.94585130195325
N           -7.47250947776018       -0.51317476098533       -0.14860059468087
H           -8.82693962589613        0.15564810425319        0.87585051408227
C           -8.41654937944006       -1.50246737081011       -0.63025425990266
H           -8.50085687062687       -1.49411755539237       -1.72575767088276
C           -8.00448007783726       -2.90520649447207       -0.17236471806227
C           -9.78962863082841       -1.16365230308110       -0.03346233068836
H           -7.89053974650414       -2.92406360443491        0.91214198751615
H           -8.76955002157115       -3.62190922358207       -0.46356615166694
H           -7.05767696069923       -3.18164903472151       -0.63301490124514
O           -9.76318864668507       -0.15237712664814        0.82930154465320
O          -10.79376090814495       -1.75850115376219       -0.31272238732466
