42
 energy: -62.486133506656 gnorm: 0.000480708351 xtb: 6.7.1 (edcfbbe)
N           -1.96423767687838       -1.19530336583641       -2.18826755334162
H           -1.24091912435909       -1.86387538023559       -2.42166260181458
H           -1.60670955154116       -0.26808774956373       -2.40065739615900
H           -3.82857747490269       -0.88447792441975       -2.48907118894146
C           -2.32580046480370       -1.27838043512760       -0.77504479136326
H           -2.42319858631606       -2.34207314205060       -0.52290135282172
C           -1.32696750849622       -0.62381008115352        0.17743502068332
C           -3.71365202834253       -0.66492574799832       -0.62888394823621
H           -1.19206111416428        0.42339668563380       -0.08613478107973
H           -1.70855211340554       -0.67370656922879        1.19149840145683
H           -0.36432010820313       -1.12866250673220        0.12696934623352
O           -4.40858377539904       -0.56327866273072       -1.76716430560594
N           -4.12031799181870       -0.33948210805262        0.51889304954162
H           -5.51314037711105       -2.00122757466657        1.53268407723356
C           -5.44827904651193        0.22822177619485        0.71852260991484
H           -5.51771472292566        0.40585968975052        1.80142869989583
C           -5.65527566282607        1.54680595817064       -0.03134661500420
C           -6.46168820428797       -0.83206478221414        0.35407742075720
H           -4.76634311756860        2.16264625724090        0.12574267935660
H           -5.72985325887677        1.32055650304882       -1.09455420874442
C           -6.89852780276803        2.32262522914363        0.41768229799842
O           -6.31355545743258       -2.01655606777723        0.99077985921058
H           -7.73047691400720        1.61862877805433        0.50831743808452
C           -6.67818541086834        3.00325918434747        1.76722486367856
C           -7.25876064675047        3.36820123606425       -0.63647741029183
H           -5.85790972542129        3.71559366271278        1.70308014510598
H           -7.57406987808486        3.54111232478127        2.06890640462167
H           -6.44347362623065        2.27980441125988        2.54392993285950
H           -7.47907427254185        2.89691468227313       -1.59113549460947
H           -8.13323786399161        3.93526587468182       -0.32622712643481
H           -6.43345725109477        4.06340850897270       -0.77715996689588
N           -7.34178671525200       -0.61761579677096       -0.51570948900194
H           -7.84424799138016        0.35454786844811       -1.93555089256538
C           -8.28578491995492       -1.62362754423491       -0.93759354639115
H           -7.82159949798465       -2.61412428434473       -1.02731918196632
C           -9.47406590286031       -1.71821275711801        0.02517174783792
C           -8.80778249629364       -1.19103238022165       -2.31754933423291
H           -9.92113059826891       -0.73539386695022        0.16138338571287
H          -10.21799976255403       -2.39294806808238       -0.38884968900442
H           -9.14087245894070       -2.09363438029492        0.98965555764788
O           -8.42944222820894        0.03220825655431       -2.66387539965134
O           -9.50455791203109       -1.88858128378855       -3.00131124350965
