42
 energy: -62.486133507243 gnorm: 0.000481325566 xtb: 6.7.1 (edcfbbe)
N           -1.46613386652169       -0.81327528797034        0.19347968441673
H           -0.80206749324530       -1.57508542340821        0.12874764615302
H           -1.31410352990910       -0.35057460630934        1.08538360560127
H           -2.14183109322157        0.59436167576855       -0.89994617654453
C           -2.84007018081930       -1.31462188801774        0.12921376768846
H           -2.89173076145669       -2.00002982930267       -0.72639120125442
C           -3.31185743355427       -2.04141239206860        1.38375607517405
C           -3.73516637530382       -0.12623864710584       -0.21671971385434
H           -3.30886261414861       -1.36340849430928        2.23352947010433
H           -4.32363965096823       -2.40161382641955        1.23904908433485
H           -2.65834121167383       -2.88478706900751        1.59865892669740
O           -3.08709313594035        0.85235536924720       -0.88767180928895
N           -4.93724279338329       -0.17042075946337        0.12440122001519
H           -7.85694263895457        1.24379030007004       -1.71022874906853
C           -5.99641197473890        0.77329715437827       -0.11615396840451
H           -6.21986995456043        1.20282716719181        0.87260312548517
C           -5.75135039017641        1.92518996090782       -1.10675393080253
C           -7.20639780833109       -0.08358654410941       -0.47870439409441
H           -4.70796814872271        2.22504858349301       -1.02970801916286
H           -5.89171142349015        1.56239179461524       -2.13038903973870
C           -6.62306340268862        3.16422030222852       -0.83324498333285
O           -8.11057253152283        0.37788985748763       -1.36600640594331
H           -7.62588849142436        2.86194713795675       -0.50395133615801
C           -6.01060516420591        4.00811767373913        0.28354671638100
C           -6.76101475498451        4.00315385010081       -2.10340623311996
H           -5.03936952439473        4.39066630759507       -0.02259227235495
H           -6.65395097283810        4.85264228274281        0.51982360024543
H           -5.87647413950235        3.41959867691478        1.18830349118181
H           -7.24883999048380        3.44333783620094       -2.89993563058452
H           -7.35035604488940        4.89602377458573       -1.90813090364363
H           -5.77959483541030        4.31174443090228       -2.45661562707480
N           -7.31338235958216       -1.20139873717961        0.08371342780269
H           -6.66981534804648       -2.28719605887327        1.29762408989187
C           -8.38618157220569       -2.13444241601126       -0.14558047232297
H           -9.36846530792136       -1.66750545058524        0.00329537019445
C           -8.34358975895974       -2.75899035030647       -1.54391328055800
C           -8.20833718194298       -3.25211503294162        0.90008370091279
H           -7.35290675070023       -3.16676307789623       -1.73468237537364
H           -9.07546082225068       -3.56002917556661       -1.59861771365967
H           -8.57013342964483       -2.00840156242063       -2.29651790887872
O           -7.09900865517018       -3.12618042855806        1.61376360128739
O           -8.99038778330354       -4.15255306704876        1.03582099557959
