42
 energy: -62.486133507403 gnorm: 0.000480457945 xtb: 6.7.1 (edcfbbe)
N           -1.29154570446489        0.10644202266333        0.43985485526360
H           -0.41894961065320       -0.28654589110101        0.77666598912160
H           -1.93117916067559        0.18204997775778        1.22388347133808
H           -2.87553858423902       -0.02045861001605       -2.70179978031474
C           -1.87939819332380       -0.75995233463920       -0.56510733137360
H           -1.28146724750978       -0.64857928305397       -1.48252619065588
C           -1.91882999315378       -2.24750511843218       -0.17365679289221
C           -3.29546579934264       -0.28821644980729       -0.82015224501355
H           -2.52564439480984       -2.36836495525627        0.72038741049042
H           -2.34838274828573       -2.84848068451401       -0.97218153549016
H           -0.91101312129596       -2.60625805816839        0.02554172232652
O           -3.64734696777690       -0.05226698810172       -2.12353552691167
N           -4.07360128135881       -0.21164908413311        0.15676403980738
H           -5.13451758578121       -1.33653195181818       -1.65704339313006
C           -5.42527691413915        0.29058882956952        0.17420966816172
H           -5.67250195236988        0.40285740975559        1.23424042505130
C           -5.52191356021032        1.66770287942757       -0.52065970697210
C           -6.43503040335349       -0.66713199785423       -0.42546130796438
H           -4.70265318717043        2.27680148292058       -0.12976202701261
H           -5.35313210560008        1.52789932578658       -1.59064860889899
C           -6.84288622099380        2.41504064534379       -0.32577135986606
O           -6.02565390500787       -1.55277936133636       -1.35062141978795
H           -7.65789890243175        1.79047003307266       -0.70168487949948
C           -7.11188382575070        2.74130273688157        1.14065001405066
C           -6.80819222711529        3.70403442118488       -1.14688468621374
H           -6.29586953982106        3.33023208524648        1.55480375154776
H           -8.02992271497900        3.31662207604800        1.22993953591511
H           -7.22311384203808        1.83717024883430        1.73260084287845
H           -6.63999637579915        3.48889425682336       -2.19973689312198
H           -7.75182046094438        4.23543155939779       -1.05438894669395
H           -6.01063733842003        4.35688566464710       -0.79763700433289
N           -7.64527331509344       -0.52783006545154       -0.09828266967215
H           -8.98029351367578        0.43668518824839        0.71171224599249
C           -8.68666689865805       -1.34036277342337       -0.68405639469873
H           -8.56187096698698       -1.44308708509428       -1.77006236320058
C           -8.73445546993179       -2.74007842194347       -0.06083971479548
C          -10.02436205318093       -0.64186425397478       -0.40107300550229
H           -8.81837395845133       -2.66218467721519        1.02131485001515
H           -9.59671822128936       -3.27547976062910       -0.44807604125299
H           -7.82740753436228       -3.28578124138715       -0.30820234951249
O           -9.93248579326732        0.35007709171081        0.47675905989597
O          -11.05701967389840       -0.97782438684041       -0.91054060150776
