42
 energy: -62.486133515284 gnorm: 0.000479730878 xtb: 6.7.1 (edcfbbe)
N           -2.36071289768153        0.51127594896796        0.83424575228733
H           -1.54376089569626        0.21566747985679        1.35814944259674
H           -3.01651253594182        0.94289597311704        1.47645611971919
H           -4.18357866479809       -1.40190723451895       -1.75831196019845
C           -3.00248627011602       -0.63411329239785        0.21868402148035
H           -2.40477864440486       -0.90769625171804       -0.66474172935298
C           -3.11420825830578       -1.86098107067907        1.14473253335458
C           -4.39980299805806       -0.25410661037996       -0.21970615171213
H           -3.72146337258367       -1.60625768448467        2.01042393303973
H           -3.57165588958588       -2.70628926060638        0.63696540825018
H           -2.12264861840394       -2.15704989819469        1.48244071710478
O           -4.85554268460800       -0.83240894863848       -1.36126802393412
N           -5.05317880700217        0.54100727064187        0.49728042480819
H           -8.79748560093877        1.17704573546171        0.22856246795577
C           -6.40322483676983        0.96712771941511        0.25705943057294
H           -6.68459610789677        1.55611809630050        1.14433760098504
C           -6.51430835193247        1.86679687370303       -0.99769342284527
C           -7.40980505234698       -0.16000749741233        0.14258638425493
H           -5.89940746650730        1.42600576893548       -1.78357418678449
H           -7.54798631550302        1.86676417707467       -1.35613098400932
C           -6.08426888929880        3.31779265000672       -0.75775502093616
O           -8.71096602279760        0.21972030796308        0.13622068788524
H           -6.62035307922646        3.69933736676086        0.12047036423251
C           -4.58587215438445        3.42368252504570       -0.49440770938389
C           -6.47015593153765        4.17224614379226       -1.96478256805995
H           -4.02549873597094        3.10153627606632       -1.36896240065532
H           -4.31347508586252        4.45258910468494       -0.27121729664182
H           -4.29581380445647        2.79349944690893        0.34075347312553
H           -7.54474718210528        4.14848971190326       -2.13581043768186
H           -6.17300487514975        5.20598669117527       -1.80641923338125
H           -5.97215257947669        3.80672461893766       -2.86005249874007
N           -7.04752547639524       -1.36085536173517        0.14081255865793
H           -5.74717569039908       -2.49842235867479       -0.26922739539621
C           -7.95301947484237       -2.48278840166935        0.06790814441027
H           -8.62546059885844       -2.50441341885338        0.93340691768072
C           -8.78910616849680       -2.50743974556993       -1.21734565396519
C           -7.07527178486164       -3.74467977663010        0.07477127177421
H           -8.13589977989551       -2.42943220374842       -2.08466866148102
H           -9.33844512467796       -3.44360475655939       -1.26748681521428
H           -9.48948549739916       -1.67703242800681       -1.22507949137483
O           -5.80157065828772       -3.48568140047335       -0.20336213573622
O           -7.50019536129127       -4.84828436770843        0.27171964131532
