42
 energy: -62.486133510744 gnorm: 0.000480579443 xtb: 6.7.1 (edcfbbe)
N           -1.57935984422596       -1.79302941825170        0.34899061845699
H           -1.04101601458815       -1.12952211957076        0.89696753347095
H           -0.92986326514350       -2.44791516821512       -0.07099233881667
H           -3.31660061260853       -1.84146457331949        1.27161793662789
C           -2.35160214800875       -1.10152538399162       -0.68375977982716
H           -1.80217231578787       -0.29709643696338       -1.19098032171830
C           -2.84265771305404       -2.10876671127050       -1.72451823129720
C           -3.56967928557725       -0.50169829182967       -0.01408417911335
H           -3.36987519139598       -2.92396237941316       -1.23383005575368
H           -3.52323916897779       -1.61446523630810       -2.41042721392747
H           -2.00327856956589       -2.51821175184054       -2.28263838972311
O           -3.98557947601985       -1.15049864004365        1.09239593417992
N           -4.13197945831768        0.50365239982019       -0.51562949337532
H           -6.90156718959091        0.47905164222707        1.90165682761465
C           -5.34907347464431        1.00245550642733        0.08779416500142
H           -5.14335313023772        1.30812315251067        1.12575883707885
C           -5.81804119327766        2.20311803000352       -0.74712635320601
C           -6.41970260142040       -0.06395844765291        0.09255014286944
H           -4.99119021201326        2.91255040256685       -0.80023300326839
H           -5.99989607026768        1.82450990341926       -1.75323661822066
C           -7.07471379810490        2.90504211718108       -0.22336097204078
O           -7.22678636278782       -0.11449942184108        1.21448755733624
H           -7.85856888829769        2.15891058813559       -0.05048305896617
C           -6.80598930125874        3.65632964390309        1.08028264615560
C           -7.58714916974168        3.88077684146435       -1.28114304943626
H           -6.04388052991013        4.41676454701193        0.92336926260094
H           -7.71276037077321        4.14758581932495        1.42628060807887
H           -6.46256407250276        2.99277665595390        1.87139684155239
H           -7.83592120479613        3.35230317059362       -2.19771903077474
H           -8.47928890168344        4.39278564864058       -0.92810608066672
H           -6.82836014859196        4.62659993293261       -1.50769854261059
N           -6.54287058644722       -0.80987433029899       -0.90136298415448
H           -8.77708082006057       -0.41943643351841        0.33791776034715
C           -7.48601254263250       -1.88233296162658       -1.07909251365048
H           -7.17491574155476       -2.39052761559719       -1.99948718301082
C           -7.51297358650313       -2.89763366099117        0.07168265762997
C           -8.91540030266167       -1.37464410911581       -1.32354207465785
H           -7.88112540926840       -2.44866649617972        0.99150678632920
H           -8.15475232264506       -3.73323774055637       -0.19636930784108
H           -6.50474919504078       -3.26543725405064        0.24869513102466
O           -9.41529790370140       -0.57166120444264       -0.38452247618744
O           -9.55530315558977       -1.69529629820543       -2.28407286544435
