42
 energy: -62.486133497516 gnorm: 0.000482138588 xtb: 6.7.1 (edcfbbe)
N           -1.62474707538154       -1.53360985051622        1.12244460726149
H           -1.35031379047371       -0.80641887913422        1.77502780659600
H           -0.81382730654079       -2.11436914017715        0.94485067840495
H           -3.53943296443857       -1.72595793808733        1.54178232594957
C           -2.12688268875014       -0.94898236661753       -0.11876712456203
H           -1.52690483902944       -0.10784498462755       -0.49407965870331
C           -2.20598246403818       -2.03068071341883       -1.19834064067794
C           -3.53095261991088       -0.44963844873663        0.16685949363818
H           -2.84782556226004       -2.84490977323998       -0.86833124934798
H           -2.60726788418446       -1.61041203117403       -2.11580990125013
H           -1.21501129426157       -2.43006563735496       -1.40351467971593
O           -4.17928138847510       -1.10487913948505        1.13902423632392
N           -4.00736523128973        0.50327196986524       -0.50647055409222
H           -5.20704231846891       -0.60170722823196       -2.07468557833294
C           -5.37892546459323        0.92516023616061       -0.27147434602170
H           -5.51843403537900        1.19318804598469        0.78100871679893
C           -5.66960590014116        2.13133809335359       -1.17540715025633
C           -6.32223148471928       -0.21048884055781       -0.58721822172273
H           -4.93490965965670        2.90362876978583       -0.94230227570095
H           -5.50646325383749        1.82951729123228       -2.21332914378534
C           -7.08523188374134        2.69856419196875       -1.02990493338792
O           -6.02568365405674       -0.93918465464946       -1.68292524856618
H           -7.80568825540336        1.88915212893213       -1.18831982239081
C           -7.31992952606470        3.28756315086902        0.35866727178995
C           -7.31643400146956        3.76837579028335       -2.09609108093287
H           -6.58969224400926        4.06663255390431        0.56818314692274
H           -8.31388379457927        3.72420253407604        0.41575421749420
H           -7.24546248603964        2.52292292225862        1.12652842920236
H           -7.18648427697930        3.35611463970324       -3.09422020420482
H           -8.32513963539285        4.16665202031566       -2.02056837916097
H           -6.61294503636994        4.58856162876920       -1.96872632161120
N           -7.33114566944970       -0.41159117038859        0.13649448807092
H           -8.53805807290215        0.22560563925568        1.32662918428196
C           -8.27355531954740       -1.46945242719294       -0.15187733461977
H           -8.48251116663031       -1.55228243415619       -1.22636387672518
C           -7.76564271029255       -2.82144121116737        0.35972826581787
C           -9.57925934175873       -1.12719756784157        0.58051019615157
H           -7.49793007893026       -2.74065640969742        1.41115047544792
H           -8.54715237478020       -3.56700773833387        0.24362929176407
H           -6.88789496614895       -3.12319268607581       -0.20619961240787
O           -9.46553598925842       -0.09863065077022        1.41178908699171
O          -10.59752354635097       -1.74187549072551        0.42380048983684
