42
 energy: -62.486133519980 gnorm: 0.000478768410 xtb: 6.7.1 (edcfbbe)
N           -1.59925197814507       -1.73839080344227        0.45154670965793
H           -1.04144124152673       -1.06742940018295        0.96975323081343
H           -0.97097521431140       -2.43607642366006        0.07045365442601
H           -3.32575612332989       -1.69065393923654        1.36763574006194
C           -2.34159983879825       -1.07486687266751       -0.62058727490193
H           -1.76869732362639       -0.30045483708405       -1.14817352323303
C           -2.83290625831214       -2.11120775071902       -1.63212635622489
C           -3.56112707627214       -0.42835919026216        0.00248919360742
H           -3.39048123446905       -2.89403279569050       -1.12292391924099
H           -3.48628322157591       -1.62846512892178       -2.35180516750053
H           -1.99152763707937       -2.56090256712193       -2.15514337456535
O           -3.98528739025446       -1.00202352841361        1.14682655780958
N           -4.11679727562972        0.54221517673463       -0.56931699262478
H           -6.66921557150912        0.64365989635890        1.99386168966635
C           -5.33942920387101        1.08738062618648       -0.01831566591945
H           -5.11851765601967        1.55668367630466        0.95273695794043
C           -5.86488680170501        2.13250684529338       -1.01216665971856
C           -6.37402663567225        0.00236367312559        0.17765107221339
H           -5.06944634567993        2.85885747528120       -1.18346533716539
H           -6.04483804757091        1.60231517408628       -1.94752751069703
C           -7.14442043118925        2.84963076529301       -0.57129431403605
O           -7.06148951044635        0.01531711293966        1.37629783245929
H           -7.88988391352684        2.10186014528346       -0.27743456423856
C           -6.89371075433003        3.79035709929724        0.60663326044450
C           -7.71290839002248        3.64013298185825       -1.74813418347098
H           -6.15755014574898        4.54378184781080        0.33440491924656
H           -7.81452326034959        4.29714571186583        0.88653693382401
H           -6.52671157098719        3.25800198376720        1.48153170427749
H           -7.94510294509192        2.97564572722915       -2.57626127208305
H           -8.62492662467429        4.15590520619390       -1.45683023629203
H           -6.99258194522208        4.38000461394138       -2.09045917704403
N           -6.56933324299844       -0.82157410430282       -0.74082646897722
H           -8.68005372393116       -0.40551185223082        0.69357292755580
C           -7.48126281868261       -1.93509713529583       -0.73583848958272
H           -7.24594858653206       -2.50440875029866       -1.64288598460931
C           -7.34685564576726       -2.85616779787056        0.48476596299428
C           -8.94842312182439       -1.49825039589638       -0.86436994383800
H           -7.63744829673807       -2.34850778038626        1.40173677787157
H           -7.97663071902072       -3.73195888950123        0.34960555093489
H           -6.31118722230718       -3.17373348051287        0.58202742223539
O           -9.38210662367192       -0.63861563432013        0.05725720151229
O           -9.67063968655425       -1.91910235625406       -1.72250363632643
