42
 energy: -62.486133512407 gnorm: 0.000479845374 xtb: 6.7.1 (edcfbbe)
N           -2.56388574047809       -2.43285983864471        0.95548533084023
H           -2.82061627723249       -2.37118638950624        1.93544509613595
H           -1.64184926412200       -2.84922712712895        0.90042247493687
H           -4.29952662964104       -2.59868837272050        0.11429959718232
C           -2.57446966956767       -1.10982844479222        0.33541453559098
H           -2.12085824625560       -0.32256653032808        0.95273026494510
C           -1.85354949004065       -1.16815812960903       -1.01168629411500
C           -4.03334000393501       -0.74581420188929        0.09332462528582
H           -2.29455257548042       -1.94065097164347       -1.63834880942428
H           -1.94118758930055       -0.20892348068171       -1.51301272473273
H           -0.79930993873807       -1.39519938826592       -0.86770046928218
O           -4.83903090501049       -1.80434871171655       -0.08076088951878
N           -4.33894727255619        0.46861647727278        0.02823925226156
H           -6.68066945491808        0.23679905793344       -2.28381518833713
C           -5.65889345095010        1.02224358325586       -0.16749786675469
H           -5.88095952505331        1.53018633122232        0.77966962961908
C           -5.55353471150746        2.08086474644517       -1.27532082051710
C           -6.77663520217586        0.01709905680048       -0.38085640080688
H           -4.71072850360204        2.72335934532110       -1.01540097759777
H           -5.28879520535346        1.59636533790113       -2.22221684646167
C           -6.81280013445025        2.93915229539538       -1.45579414647955
O           -7.18995554452734       -0.26174896159830       -1.63243989112065
H           -7.68848483862581        2.28912451996784       -1.56555346426041
C           -7.04543517522782        3.84687111516285       -0.25029651540934
C           -6.67767650518977        3.78245627845583       -2.72354032969062
H           -6.17541464706814        4.47595960378927       -0.07545660711460
H           -7.90413614203515        4.49029956142775       -0.42714255688687
H           -7.24065278895620        3.26659988035763        0.64751202816447
H           -6.54940114452663        3.15389992165811       -3.60272850825682
H           -7.56564929688618        4.39244662593322       -2.87004317902106
H           -5.81706754542569        4.44333483226835       -2.64656735099339
N           -7.25512290821284       -0.54406944859706        0.64092639825593
H           -7.24290064278448       -0.75402083431726        2.40611246963101
C           -8.31359877844912       -1.52582101492333        0.58343779009104
H           -9.19067484394772       -1.12366173943804        0.05997489545288
C           -7.90157951052877       -2.83941069826259       -0.08871439287380
C           -8.70932905605888       -1.83181734035923        2.03689097678838
H           -7.00258686273473       -3.22730937516777        0.38341776612843
H           -8.70639853165028       -3.56071997530627        0.02162592851246
H           -7.70136327446749       -2.67282959105709       -1.14291109687851
O           -7.89750790681369       -1.27859312093974        2.93008290125618
O           -9.64711556626902       -2.52025054147306        2.33172835715306
