42
 energy: -62.486133511082 gnorm: 0.000480189392 xtb: 6.7.1 (edcfbbe)
N           -1.80483128922661       -1.43198602579289       -1.01581621325459
H           -1.17929218526134       -2.22190818148429       -0.91437031172717
H           -1.23304269739384       -0.59185183539860       -1.04199094767352
H           -3.31062398559270       -0.92846640914592       -2.07476576770756
C           -2.74093661537140       -1.35796588833528        0.10687909110810
H           -3.13419135304333       -2.36975009674344        0.27181917205002
C           -2.14243406038931       -0.83312046448144        1.40883978826407
C           -3.92188115931283       -0.51301716949105       -0.34605070194544
H           -1.72215075858355        0.15923625790975        1.25533364051790
H           -2.92375435941192       -0.76118912657923        2.15777903407616
H           -1.35902336015464       -1.50004783472558        1.76338090439146
O           -4.07394165546894       -0.45003213457815       -1.68932778464832
N           -4.66740386334589        0.02143193903884        0.51062584706202
H           -6.18503563684361        0.24409722728422       -2.23203652514917
C           -5.84952515157775        0.78913043588818        0.15572886345498
H           -6.27051014836295        1.09065178663126        1.12080255224648
C           -5.53702208136989        2.03769713201987       -0.67719539851542
C           -6.84642954770860       -0.15792978325637       -0.48244206296541
H           -4.81643909184047        2.63356339830067       -0.11175433277844
H           -5.04462228929128        1.75127778710441       -1.61120450671548
C           -6.76974941710083        2.89614941044785       -0.99005829791771
O           -6.90380580196129       -0.25599550157626       -1.82213057606314
H           -7.54789801466111        2.26323949393597       -1.43148605272361
C           -7.33895923798017        3.54431543972219        0.26976281694103
C           -6.39267396636199        3.97435631944912       -2.00600258185305
H           -6.57866421864663        4.14565635994951        0.76418342198968
H           -8.17344317782278        4.19223609021265        0.01164424337325
H           -7.69916537858197        2.79507875627794        0.96960426948213
H           -6.02544827427792        3.53129273982688       -2.92978112952742
H           -7.25661235704662        4.58963705753898       -2.24495424836064
H           -5.61489751851866        4.61901540115384       -1.60155535829671
N           -7.52461621141414       -0.89056016891301        0.28735380462465
H           -8.14866391634114       -1.26827400983745        1.94005216698211
C           -8.42756398700900       -1.90160928903256       -0.21478497836162
H           -9.06255622750006       -1.51770017105376       -1.02302688046883
C           -7.67310340997794       -3.13614670731797       -0.72203406927393
C           -9.32285007105469       -2.33004921298573        0.95790447770662
H           -6.99866316993276       -3.49900317971549        0.05140771084498
H           -8.38762796665429       -3.91652369235605       -0.96828498242790
H           -7.09525697537658       -2.88131498690035       -1.60688941437135
O           -8.93025859194634       -1.84141876470838        2.12721841472379
O          -10.27062225246737       -3.05422840066816        0.82655828170182
