42
 energy: -62.486133514426 gnorm: 0.000479176351 xtb: 6.7.1 (edcfbbe)
N           -1.50802951905482       -1.89818398348355        1.03032670422492
H           -1.56325463738666       -1.71097062442324        2.02619810153030
H           -0.54859304877695       -2.13940300604991        0.81165132716452
H           -3.29110749653765       -2.54941645114968        0.65891861052870
C           -1.93918499707274       -0.73279102277711        0.26202331262871
H           -1.57366200456872        0.22532413216074        0.65533782748855
C           -1.49029945440773       -0.87969598587354       -1.19329349933054
C           -3.46068516155078       -0.71247097651549        0.29307348491871
H           -1.84641463273250       -1.82306701929155       -1.60342152172534
H           -1.88654840264456       -0.05849769781847       -1.78369561953905
H           -0.40457859289293       -0.86264039260622       -1.25746049991544
O           -4.02195538531347       -1.92928340326334        0.46021150385789
N           -4.04777108279049        0.38896012365856        0.17361113422924
H           -4.98143371245589       -1.20705443157804       -1.46464604443002
C           -5.46602313892043        0.63158885819762        0.10514650722041
H           -5.79028010292397        0.92288393405171        1.10965112137191
C           -5.63742099998835        1.84164178787336       -0.84256147143772
C           -6.37302870372082       -0.48214195044136       -0.36844481664036
H           -4.87636520843290        2.56851784948947       -0.55508104684999
H           -5.41090758589658        1.51160553325642       -1.86007666105604
C           -7.01554906193563        2.50673013642859       -0.82782912644088
O           -5.92630567178701       -1.32936869740767       -1.31342089717406
H           -7.77394259508923        1.75348354011599       -1.06071359767916
C           -7.33971460100393        3.11960624382514        0.53177009999749
C           -7.06273763032180        3.58718235074106       -1.90787766839642
H           -6.58647175428855        3.85559644848724        0.80556002554049
H           -8.30711014398432        3.61407753895841        0.49558636972526
H           -7.38161796103229        2.36015339881434        1.30745708262402
H           -6.86629712072364        3.16310042037963       -2.88996221248087
H           -8.04292330475638        4.05648905708250       -1.92964918017116
H           -6.31813728350190        4.35555453562816       -1.70991428578337
N           -7.58656304788948       -0.43342627311274       -0.02444769825755
H           -8.97571401842268        0.46973233267069        0.71651318992180
C           -8.55873168183211       -1.36381205655538       -0.55276036464815
H           -8.44682275915760       -1.49843789715900       -1.63667198995817
C           -8.45866881712653       -2.73369231629470        0.12685005779612
C           -9.94917021771627       -0.77756936473210       -0.27016630420306
H           -8.53296039918640       -2.61765317808065        1.20626220302430
H           -9.26910316428641       -3.36793289268563       -0.22099310917848
H           -7.50469834498537       -3.19572581354265       -0.11440950663586
O           -9.92527520114094        0.28678329004803        0.52358574761343
O          -10.96013260133192       -1.24780189546154       -0.71330176584166
