42
 energy: -62.486133518998 gnorm: 0.000479877289 xtb: 6.7.1 (edcfbbe)
N           -0.75790704175348       -0.27234453361646       -0.39970487787250
H            0.03001549237525       -0.39761085352043       -1.02313550903715
H           -0.60381943738418       -0.86767944829061        0.40958999035746
H           -1.78358815739196        1.14477800458786        0.39084004123966
C           -2.01139433025866       -0.64191841872291       -1.05768190066271
H           -1.99581038549489       -0.20603399101937       -2.06433167476892
C           -2.25871148463084       -2.14465616705618       -1.16580517591822
C           -3.13888772983231        0.05207802051944       -0.30736000247948
H           -2.22631718842229       -2.60265413369163       -0.17870857073689
H           -3.24197410687599       -2.31469549306227       -1.59100946918252
H           -1.50486246324984       -2.61175584514681       -1.79606628890631
O           -2.75962100530161        1.09670263124587        0.45153440012770
N           -4.31961907671639       -0.35701319457178       -0.44264755082721
H           -5.57333813157391       -1.44277931182958        1.85228004850088
C           -5.42005867177732        0.32124571898498        0.21701216821095
H           -5.12292518197682        0.65930786729783        1.22282837412256
C           -5.85448606710267        1.53263916270886       -0.61755781065518
C           -6.50841512059833       -0.72028796008265        0.34017151621607
H           -4.99528243528595        2.20157243816660       -0.70060332803096
H           -6.10124363720196        1.16895313149739       -1.61559735636104
C           -7.04547515693245        2.30400093684575       -0.04128755226488
O           -6.39979471431074       -1.58428137186724        1.37495805039374
H           -7.85506982569628        1.59563031840332        0.15729387024301
C           -6.68231527166534        3.01514457564735        1.26063223860359
C           -7.53460526772091        3.32039970040368       -1.07162307293126
H           -5.83396862090513        3.67903046352781        1.10717671694523
H           -7.52305605171134        3.60914448195150        1.61181617300986
H           -6.42641788582866        2.30483473113733        2.04279632195071
H           -7.83682606532271        2.82262889181079       -1.98964946120286
H           -8.38788803598467        3.87304686294161       -0.68562172928426
H           -6.74527941729888        4.03094247534038       -1.30802012519026
N           -7.41763201493330       -0.79983404451263       -0.52330239048175
H           -8.03634584978229       -0.33913809469701       -2.14382679976414
C           -8.44042423257197       -1.81777125873825       -0.48497023932258
H           -8.02254381760082       -2.80976904915974       -0.27221811914838
C           -9.51848751090148       -1.50126365907152        0.55756645352191
C           -9.10047622071004       -1.84124774809599       -1.87330049427795
H           -9.91732041525217       -0.50276269538097        0.38859630334533
H          -10.32443914485795       -2.22431683950870        0.47011754920037
H           -9.09418682843275       -1.55041377723600        1.55720656457476
O           -8.71424380487429       -0.84237155292262       -2.65642562292486
O           -9.90114894249151       -2.67150679984701       -2.20302656434401
