42
 energy: -62.486133509375 gnorm: 0.000480680940 xtb: 6.7.1 (edcfbbe)
N           -0.87681302129127       -0.37212208015786       -0.52279568490969
H           -0.12663211867711       -0.75739284993236       -1.08381821205570
H           -0.70853437487219       -0.64721789863095        0.44122310216681
H           -1.84031934135823        1.28986681287400       -0.27281528740813
C           -2.17382350394828       -0.88681482697568       -0.96385341913910
H           -2.20733578491500       -0.78864945332298       -2.05653238261712
C           -2.45562112877185       -2.33726143202945       -0.58247581741704
C           -3.24359207930580        0.04811408983002       -0.41902654646183
H           -2.37349964725061       -2.46374262671192        0.49532091355290
H           -3.46764876794288       -2.58876532683480       -0.88019077492504
H           -1.75162393055986       -3.00645249196109       -1.07300478363030
O           -2.80832760037649        1.29282368917008       -0.13220779012549
N           -4.41630032512601       -0.37429672435905       -0.27853290036898
H           -6.97835076594300        0.20675477265112        2.09790521642768
C           -5.49526203485259        0.46936079158934        0.17338143467347
H           -5.25389387822002        0.88514231857377        1.16457695697669
C           -5.77142420054461        1.62229206549988       -0.81151743686112
C           -6.73338754211431       -0.39258926418768        0.25535891742554
H           -4.86818138712846        2.22772958495003       -0.89441585188558
H           -5.97286702387214        1.15869644972247       -1.77846067428864
C           -6.95125305944626        2.51735925919907       -0.41860358631079
O           -7.43646509873310       -0.34220201897108        1.45042824725406
H           -7.82592018832848        1.88969161967631       -0.21406505103278
C           -6.64101103078466        3.35841413316978        0.81875669887974
C           -7.29887317836996        3.43419513368532       -1.58984242322255
H           -5.77010681820648        3.98486413628755        0.63751656526259
H           -7.48425012804916        4.00290192716540        1.05667853532931
H           -6.43763248913659        2.74037093979470        1.69073780164747
H           -7.57078729568863        2.84807565260004       -2.46391258476804
H           -8.13822862101936        4.07666663246968       -1.33441299158038
H           -6.44833767396210        4.06287127783204       -1.84501424093068
N           -7.07167388757841       -1.07444568390895       -0.73262088368293
H           -9.08995094412537       -0.34508603955994        0.71107568945939
C           -8.20124301239768       -1.95904390180930       -0.84298506618520
H           -8.06418101998313       -2.48671057585984       -1.79396240309559
C           -8.31571613100493       -2.98835203042817        0.28983541067842
C           -9.52971116459440       -1.19540520586440       -0.95525886067180
H           -8.51712340795674       -2.51016834804953        1.24591466813955
H           -9.11959560798977       -3.68555454664931        0.06702043486162
H           -7.38033430319924       -3.53762572015662        0.36836782646697
O           -9.79953692641524       -0.35106830550958        0.04100824602080
O          -10.29082080710369       -1.35724958451084       -1.86584584383864
