42
 energy: -62.486133516494 gnorm: 0.000479018043 xtb: 6.7.1 (edcfbbe)
N           -1.37237752692129       -0.95410435694714       -0.01734830239681
H           -0.79523940181794       -1.77305019454127       -0.16496465405395
H           -0.99459164278712       -0.45402684801289        0.78305607497953
H           -2.13014735532550        0.46494980475160       -1.01000031429284
C           -2.76079281408183       -1.33466129578350        0.24742283168881
H           -3.03490603837846       -2.10422739409077       -0.48476997310710
C           -3.01433407158600       -1.87160173866437        1.65315215513529
C           -3.63622113894663       -0.12040763214887       -0.06168059855001
H           -2.72487488752225       -1.13000535865614        2.39538834039316
H           -4.07037914813768       -2.08499041202103        1.77309078889223
H           -2.44276724213478       -2.78221802288047        1.81990872539292
O           -3.04208414067556        0.79179104355575       -0.85575866402428
N           -4.79110706576168       -0.09634558404012        0.42064650097461
H           -8.12189671919422        1.66420927928130        0.73362194932755
C           -5.83009282997311        0.88206910974174        0.23867752558273
H           -5.82466818684167        1.52692443776977        1.12967081020455
C           -5.70796023095818        1.74365482672984       -1.03766779094355
C           -7.12462326706643        0.09260759398387        0.23001624364277
H           -4.73906222769964        2.24250075364900       -1.01036666257027
H           -5.70188308470881        1.05673549524252       -1.88719815944215
C           -6.79096137804898        2.80532545003495       -1.26115416451095
O           -8.28020361603475        0.73858395141673        0.51206643669836
H           -7.77694203971479        2.32931077439718       -1.29526169023485
C           -6.77623727609705        3.87837587940195       -0.17168109103820
C           -6.55892533617513        3.46585192966176       -2.62072596586373
H           -5.81360667559875        4.38560755158942       -0.16380168796665
H           -7.54952066739874        4.61970676970606       -0.36228771667106
H           -6.94414880376783        3.46891508728790        0.82351901855897
H           -6.60004501892481        2.72797030379299       -3.41820166186615
H           -7.31875594984602        4.22019235956618       -2.81243584315469
H           -5.58310975378923        3.94575712826603       -2.64792064016080
N           -7.06941046147734       -1.14245786462481        0.01409351206032
H           -6.01212764563180       -2.55213822328179        0.11022543729373
C           -8.20820986634695       -2.02163560480905        0.03039433870221
H           -8.88754622013050       -1.80238957489732        0.86498444950009
C           -8.99956745799681       -1.96184069740819       -1.27942244360084
C           -7.64621389839283       -3.44396532614294        0.21360955490980
H           -8.32982607237530       -2.11369937301134       -2.12334051329913
H           -9.75329297280434       -2.74416965851192       -1.27765905561096
H           -9.48246169170440       -0.99284431052726       -1.37879682813243
O           -6.32066035122784       -3.48960121032584        0.21380532821364
O           -8.34440907373593       -4.41268453057531        0.33402927924309
