42
 energy: -62.486133513989 gnorm: 0.000479449793 xtb: 6.7.1 (edcfbbe)
N           -2.06448687794308       -2.30178962870300       -1.17587947699094
H           -1.08368467966199       -2.54486666510732       -1.24809897810308
H           -2.42503833588133       -2.19462338535662       -2.12034925895863
H           -3.68793736779806       -2.81417168759430       -0.27777443994876
C           -2.23954705793958       -1.05125560646253       -0.43926163026409
H           -1.68400439776300       -1.15233367063300        0.50248839187534
C           -1.75577798864346        0.19392858835752       -1.17783100189141
C           -3.72483241090502       -0.95300127220251       -0.07463170973690
H           -2.29256152535355        0.30191086249740       -2.11782093655879
H           -1.95107672723848        1.07038406846533       -0.57036440018272
H           -0.68881613191480        0.12570678427161       -1.38240940815453
O           -4.32088865394790       -2.14321787376062        0.05006206982085
N           -4.18173362364693        0.19084095742101        0.15656288885175
H           -7.56161132802684        1.03590533403302        1.60643550141189
C           -5.50495455190638        0.67806271938799        0.40057779812918
H           -5.45222813983016        1.18109557107215        1.37781358889545
C           -5.73179354258332        1.74184548596226       -0.70717913465543
C           -6.69265643281678       -0.25772103386872        0.41433965122756
H           -4.80520209921699        2.31310437823186       -0.78323524717131
H           -5.86261932866858        1.19483740069904       -1.64290829482715
C           -6.90447784250530        2.70921069811434       -0.51753163787259
O           -7.76975816227271        0.19976812470727        1.17320542319284
H           -7.82982756090405        2.14526476493581       -0.35853349842292
C           -6.67731189739270        3.65615925032493        0.66063300687376
C           -7.08599276052704        3.52451898715378       -1.79783472443163
H           -5.78719998509946        4.25714198973554        0.48785220837539
H           -7.52567666319401        4.32758954111594        0.77434666950913
H           -6.54231754085142        3.12419376310692        1.60076860633156
H           -7.30165780000935        2.87154739959035       -2.63977151694373
H           -7.91072731002932        4.22490613252656       -1.68888610516261
H           -6.18280974183660        4.08821701047386       -2.02088503850927
N           -6.68135124018587       -1.35216648881279       -0.17763885839609
H           -9.05762426723001       -0.37494442855609        0.05354297546847
C           -7.71350271121149       -2.35091213584868       -0.22399693617844
H           -7.25763348100384       -3.20962416543763       -0.73001917760877
C           -8.22292230846611       -2.79559191421527        1.15375601220510
C           -8.91131340424836       -1.91709170335165       -1.08058231515378
H           -8.73653828539145       -1.98783283453608        1.67083221944586
H           -8.90793333960906       -3.63136654592281        1.03426380686257
H           -7.37684109800432       -3.11265979356165        1.75900603536678
O           -9.49842001346968       -0.77542533400540       -0.72064981967542
O           -9.31290271620893       -2.56756953256202       -2.00347839187836
