42
 energy: -62.486133515667 gnorm: 0.000479149021 xtb: 6.7.1 (edcfbbe)
N           -2.34291702385798       -0.57758790609517       -2.13389111094032
H           -2.51434503010028        0.35886108767057       -2.48626142400196
H           -2.39608263589861       -1.21858631907032       -2.91768954024659
H           -1.23455430803313       -0.31480919752889       -0.48221272720310
C           -3.32583161178190       -0.93422654079841       -1.10821294704486
H           -4.36436553538554       -0.77094046455365       -1.43334951631876
C           -3.12022443976178       -2.40639863412117       -0.74550679481293
C           -2.99620832286436       -0.01430377654216        0.07704901453422
H           -2.12817630892474       -2.55722421823268       -0.32440593529920
H           -3.86436599932818       -2.74198524990771       -0.03010605820581
H           -3.21144856855671       -3.01862708008086       -1.64085183473127
O           -1.67903952931874        0.07356691442560        0.29637743571988
N           -3.73963945856887        0.72729727883151        0.77285504370555
H           -4.74732786153293       -1.37207982390609        1.73792070774391
C           -5.17761616554351        0.77209750639653        0.81774860158353
H           -5.42073859071854        0.96401255975301        1.87412509883511
C           -5.66110884690512        1.96575085442047       -0.02226603204047
C           -5.86801693818040       -0.51708139893319        0.43777928717049
H           -4.95052112229302        2.78013797264314        0.12881506238597
H           -5.62282395587112        1.67449073611042       -1.07342548478313
C           -7.07294734984180        2.44798653349217        0.33090375147272
O           -5.46552615556781       -1.60858899249551        1.13470991161199
H           -7.71750012667829        1.57321722656892        0.45675267274083
C           -7.07529469364125        3.25244396486754        1.62879624761544
C           -7.62597542897571        3.30282301609763       -0.80835374029068
H           -6.46288333891921        4.14504262536979        1.52131837086555
H           -8.08765234412462        3.56001073299474        1.88003912593428
H           -6.68479414118073        2.66890215992070        2.45848845055712
H           -7.68129910471332        2.73434009352485       -1.73387441822577
H           -8.62517577129398        3.65668912164307       -0.56652528450923
H           -6.98813759041984        4.16845110574290       -0.97400685661704
N           -6.81066478495860       -0.53871336433556       -0.39351150542234
H           -7.68937466483147        0.24566210829209       -1.80939030246738
C           -7.50505939759590       -1.75334551101417       -0.75022255931397
H           -6.85277458064011       -2.63493934679089       -0.73059125860134
C           -8.69820457455840       -1.99154276469181        0.18217358927309
C           -8.04593638787174       -1.55269695720724       -2.17337486137532
H           -9.34913070694411       -1.11938044381030        0.18564594808936
H           -9.26010246594064       -2.85445000021095       -0.16364963205931
H           -8.34424383863418       -2.17323397546788        1.19417279355416
O           -8.08717802024910       -0.27675570653208       -2.54311388689963
O           -8.41096936890456       -2.45586816816583       -2.87146814988075
