42
 energy: -62.486132347412 gnorm: 0.000611293072 xtb: 6.7.1 (edcfbbe)
N           -0.99760026100485       -1.23387293570593        0.33550515810455
H           -0.03541610554406       -1.23873542021412        0.02007942597076
H           -1.27786036073588       -2.20170607990753        0.46961224179055
H           -2.10470580706021       -0.34988888763769        1.63025992956913
C           -1.86892781397570       -0.59849968732622       -0.65303358995160
H           -1.37438149681380        0.32460672680250       -0.98035478178000
C           -2.18907395733355       -1.45766944673458       -1.87352112383737
C           -3.13759344835149       -0.17460014703819        0.06827352035782
H           -2.64670480580442       -2.39453292345065       -1.56260732593024
H           -2.89205771550335       -0.92959096429984       -2.50814332628273
H           -1.28323092219603       -1.67507892937841       -2.43559722091872
O           -3.02661026835765       -0.09972262446896        1.41698974644613
N           -4.18444390174039        0.06020750466522       -0.58274882660826
H           -5.07699613315849       -1.36848482236717        1.42231443168228
C           -5.38144016171951        0.56089640203549        0.06572817784066
H           -5.16825792114294        0.91947469928788        1.08528530094461
C           -5.94347774107846        1.69228959444564       -0.79722288347456
C           -6.31907836310949       -0.62036423855633        0.16872084247116
H           -5.14000958981483        2.40991728913550       -0.97427308337822
H           -6.22070577912909        1.25910491011081       -1.75769898719770
C           -7.14554068720093        2.41217060014260       -0.17656492419929
O           -5.92355911200650       -1.59839000907765        1.01500378877401
H           -7.83459940326891        1.66023859698842        0.21848841057396
C           -6.71650077549931        3.33354326969416        0.96392502004738
C           -7.87158032259556        3.22026624877775       -1.25052263987369
H           -6.03908652158486        4.10163199897074        0.59591850269147
H           -7.58385030387689        3.82407545898990        1.39974978999028
H           -6.21228459583858        2.78100600947909        1.75278913738457
H           -8.23588405343831        2.57207467041300       -2.04353577468728
H           -8.72161851546197        3.74535684240150       -0.82141400039502
H           -7.20046179341270        3.95640371980195       -1.68807183781095
N           -7.37125821125535       -0.67789334199718       -0.51440925594470
H           -8.36978646941741       -0.02834077897903       -1.86349762535732
C           -8.27044647437663       -1.80659541742942       -0.46943664832908
H           -7.73131935166301       -2.76075699661219       -0.52127207299227
C           -9.13650254365947       -1.79591464590241        0.79507584909751
C           -9.19527765681087       -1.68886883770745       -1.69207827120238
H           -9.65559595423699       -0.84339303653642        0.88254662286224
H           -9.86942337812192       -2.59526311430649        0.73404709572599
H           -8.51263697980896       -1.94282497920538        1.67312783884440
O           -9.08323962808934       -0.52940951828869       -2.32727746558796
O           -9.95716597576624       -2.55489258901365       -2.02122408525587
