42
 energy: -62.486133517332 gnorm: 0.000479290631 xtb: 6.7.1 (edcfbbe)
N           -1.34557869092251       -1.84956933963865        0.10374618570427
H           -0.92122727838379       -1.49659695159803        0.95499162547218
H           -0.61538390985163       -2.27174466538537       -0.45718523945401
H           -3.14411578962473       -2.32615361401286        0.62092009908744
C           -2.01097894205177       -0.77619909805235       -0.63262154872259
H           -1.46999130385334        0.17951445827625       -0.61385614519409
C           -2.22815571847147       -1.19946740980480       -2.08566113920074
C           -3.37701039255717       -0.56844795213198        0.00392134265656
H           -2.77872324432746       -2.13699173103332       -2.12450202477948
H           -2.79747883526584       -0.43430586053781       -2.60419916886578
H           -1.27262412610174       -1.33230567632117       -2.58881952377280
O           -3.84678509754587       -1.64483959440612        0.66489734230967
N           -3.95162774733203        0.53361132432427       -0.15391015649977
H           -5.23273998471284       -0.56698730115917        2.28415444961240
C           -5.28291389245030        0.88992531012053        0.28623536076631
H           -5.14961654459297        1.50014244257749        1.19269070715594
C           -5.87667711847584        1.77042755317078       -0.82229674166983
C           -6.19064436847422       -0.26981458967088        0.64463631029213
H           -5.12254307205446        2.51784520645448       -1.07263542586872
H           -6.02679409842855        1.13979563502898       -1.69874938165617
C           -7.19271397983072        2.46486937623082       -0.46053251191794
O           -6.07509820594755       -0.80536521739349        1.87885946953674
H           -7.89452700495690        1.71179165149444       -0.09074748272122
C           -6.99695622050338        3.52580142995900        0.62055880316843
C           -7.78668364220688        3.10424270479135       -1.71457434739988
H           -6.25016452919588        4.25312801067128        0.30886912217025
H           -7.93120010540725        4.05185308651277        0.80344544014602
H           -6.67666289269183        3.08203280563353        1.55992843565223
H           -7.97256006668191        2.35363622532505       -2.47871300973632
H           -8.72862914702433        3.59558662574975       -1.48249403631557
H           -7.10376454310503        3.84745129159651       -2.12055374308245
N           -7.07414285963791       -0.64108023391473       -0.17204680488439
H           -7.70499765742863       -0.66956726562096       -1.85501527193007
C           -7.97736557398752       -1.72956561682717        0.11573426924092
H           -7.46877494037221       -2.56470578671615        0.61350635878876
C           -9.14916664122121       -1.27091626701354        0.99121779041335
C           -8.54029554489450       -2.20985895259725       -1.23012029855035
H           -9.64908823761039       -0.42146352744067        0.52935920043654
H           -9.85926091023153       -2.08617293795911        1.09686323967494
H           -8.78410973462746       -0.97843900167934        1.97257324036972
O           -8.26920193584399       -1.38547751687392       -2.23528210392390
O           -9.17921670898959       -3.21764459621323       -1.35365781987948
