42
 energy: -62.486133500682 gnorm: 0.000481415798 xtb: 6.7.1 (edcfbbe)
N           -1.30745045908128       -1.28365620787923        0.45464413849466
H           -0.73865686609606       -0.44956311055662        0.55593185662694
H           -0.69141634859770       -2.05428727612376        0.22623734662894
H           -2.77191021714289       -0.95826149412992        1.65432028063106
C           -2.31534139191463       -1.09994952980864       -0.58933910059033
H           -1.95610819357912       -0.54197998458020       -1.46439064313196
C           -2.84947972235047       -2.45767982444781       -1.04793807103672
C           -3.46661320431980       -0.33112651771479        0.02813432706727
H           -3.21655827190501       -3.02489864407868       -0.19503437948648
H           -3.66515269871143       -2.30480083275231       -1.74831249623241
H           -2.06368031430132       -3.02891350414240       -1.53755720328369
O           -3.57042726917986       -0.46352026410593        1.37359275036589
N           -4.24604290299064        0.32612140166195       -0.70296042712596
H           -5.63315480052888       -0.41428361638028        1.81775731831420
C           -5.39904764067031        1.00398227286093       -0.13509869175089
H           -5.14331576946594        1.46483950542587        0.83125796443905
C           -5.83390695173980        2.06849243898182       -1.14489043942949
C           -6.43858108120500       -0.06805316444324        0.09912040770740
H           -5.04669639190344        2.82424305720183       -1.17830398804611
H           -5.87696959705411        1.58072461850218       -2.11768568906246
C           -7.17930292597465        2.74241917001761       -0.86155344634626
O           -6.41453033951349       -0.67371341838907        1.30771260029546
H           -7.97046740933362        2.00652706233994       -1.03831050010423
C           -7.28863246457287        3.25237520851286        0.57380090266599
C           -7.37808637517872        3.89501979309669       -1.84481523171438
H           -6.45249392692257        3.90800975397320        0.80909227601311
H           -8.20966562236390        3.81695277670186        0.70200039426064
H           -7.29990512358365        2.43188252443196        1.28728544715586
H           -7.29284296903268        3.54065485141937       -2.86885964525574
H           -8.36078618596797        4.34271228376392       -1.71606155630647
H           -6.62711256043979        4.66559736192863       -1.68376713652868
N           -7.21066948878054       -0.41769217163882       -0.83364791704896
H           -8.96063743893676        0.53995488533768        0.14741216082982
C           -8.12443161374458       -1.52996031197375       -0.66569760680215
H           -8.75988966667047       -1.52548750855975       -1.56484430751540
C           -7.41138548702580       -2.87772817465590       -0.56877485906628
C           -9.06958437227295       -1.33651900946133        0.52662122890645
H           -6.77759990615152       -2.89854720936251        0.31336818511557
H           -8.15077472713602       -3.66845782538033       -0.48227856776087
H           -6.80247627396245       -3.03804790607222       -1.45489262812748
O           -9.42372528784069       -0.06219393164693        0.75176975271602
O           -9.51068100258450       -2.23321334409444        1.18389032255367
