42
 energy: -62.486133507486 gnorm: 0.000480719796 xtb: 6.7.1 (edcfbbe)
N           -0.86404614646294       -0.72038960241797        0.24619696400341
H           -0.53518306983497        0.21770053755768        0.45030661914529
H           -0.07111951327597       -1.26543298285234       -0.07116482084400
H           -2.32612440393884       -0.97937710743850        1.46503573216525
C           -1.91397537200951       -0.69106120141521       -0.77222745073776
H           -1.73937868242145        0.03685900337412       -1.57527327387120
C           -2.08402568049293       -2.08257416933218       -1.38412168994768
C           -3.20275384263268       -0.32354297884937       -0.06472892471742
H           -2.25781370654808       -2.81925967791793       -0.60220274766982
H           -2.93096029787436       -2.08035777770211       -2.06373483962621
H           -1.19028253822847       -2.36385493859665       -1.93670933077367
O           -3.23899003320687       -0.69720195661345        1.24448377525643
N           -4.13303545959533        0.23453787188538       -0.68985358465960
H           -4.96968344742125       -1.52302262805053        1.02970854815901
C           -5.38805178536051        0.59288500142398       -0.05694585132523
H           -5.21572389720828        0.87637253200157        0.99507870314432
C           -5.98869966492928        1.76462491843401       -0.83467673258608
C           -6.29063117050770       -0.62418927891296       -0.03600221497593
H           -5.18984961466666        2.48535047451668       -1.01778035311596
H           -6.31870170724402        1.38333767874034       -1.80038759064727
C           -7.15076316274633        2.45935852879619       -0.11611197097249
O           -5.83681658110207       -1.70184781771149        0.63177320071753
H           -7.81456204936856        1.69222573934010        0.29267044126743
C           -6.65066008056457        3.33754803759010        1.02974715558931
C           -7.94059347368706        3.30866661002730       -1.11021712940007
H           -5.99919488622230        4.12168826183843        0.64893291112523
H           -7.48869554935621        3.80758082678708        1.53918365019194
H           -6.09583345545586        2.75728293847635        1.76296322738085
H           -8.35875228478467        2.69311751344738       -1.90259341524934
H           -8.75884008155051        3.81900671909486       -0.60765884774046
H           -7.29529150402564        4.05949260351242       -1.56145630620984
N           -7.41283428670808       -0.58604288517338       -0.60337891450576
H           -8.53073950292287        0.23035665011964       -1.75201669689129
C           -8.32082881261987       -1.70859068615096       -0.60995182936530
H           -7.80586989701208       -2.65234907253256       -0.82882658685133
C           -9.06266136323457       -1.84771116540155        0.72426187199046
C           -9.35650023812414       -1.43792631560145       -1.71321658950713
H           -9.54838523758391       -0.90769182456325        0.97918665637999
H           -9.81677670124182       -2.62454099284945        0.63533144725088
H           -8.36228576894378       -2.11133530326228        1.51276243416706
O           -9.29177864640513       -0.20722235531417       -2.20492621201626
O          -10.15849766422069       -2.25449555870779       -2.07252434989006
