42
 energy: -62.486133508295 gnorm: 0.000480938271 xtb: 6.7.1 (edcfbbe)
N           -1.48776756464129       -1.08422878773321        1.10346598037292
H           -0.53484702660239       -1.38060860078095        0.93130437737128
H           -1.93582906111723       -1.80531001469597        1.66269777705643
H           -2.50738543406529        0.43089777571276        1.70886008537588
C           -2.21721457545666       -0.90897177152225       -0.15163825250229
H           -1.57720262558284       -0.31901479499251       -0.82077938501278
C           -2.61123221510128       -2.21077801132532       -0.84642602402980
C           -3.43900947966093       -0.05517885743495        0.15726950231806
H           -3.23186771337345       -2.81293679677721       -0.18577754819205
H           -3.18461874346992       -1.98505798342842       -1.73882737088787
H           -1.72547327844436       -2.78066715788100       -1.12024522245917
O           -3.34993448759049        0.67855253281919        1.27718244189016
N           -4.42098001326989       -0.06830749922568       -0.62867304658206
H           -6.26722187773648       -0.06546283580788       -2.51127056002171
C           -5.59498119745820        0.74036113098087       -0.35593507005089
H           -5.65439866949040        1.00727578800978        0.70565899477252
C           -5.57029096537808        2.01420419175216       -1.21118517926246
C           -6.76014214189883       -0.16436890513229       -0.68093448203115
H           -4.77709241905254        2.65645320433822       -0.82267181050794
H           -5.29594889242771        1.75556752267105       -2.23922542717092
C           -6.89723887650583        2.78230781015738       -1.21225175761194
O           -6.96811983394422       -0.45947045932760       -1.97623169841040
H           -7.68335851354128        2.13508612777707       -1.61777138304165
C           -7.30406817330074        3.20402303562550        0.19751154671267
C           -6.77059030557824        4.00855240579498       -2.11504164131399
H           -6.50127684608346        3.76265951656237        0.67387527484812
H           -8.18650694552548        3.83827171407533        0.15726436075648
H           -7.53897435232722        2.33788973372501        0.81024504247279
H           -6.49312629901028        3.72046708592050       -3.12692855460642
H           -7.71474873755518        4.54555551015517       -2.16046067914453
H           -6.01018037184941        4.68445107378195       -1.72962358078202
N           -7.40975491369807       -0.68450248559709        0.26445552034008
H           -7.90328047262211       -0.69159291488411        2.00501723517149
C           -8.48235595686435       -1.62589392656297        0.02601338666273
H           -9.14685678122530       -1.29084725268569       -0.78016263972502
C           -7.94616360532537       -3.01874400077351       -0.32267028832371
C           -9.29434932178544       -1.72825865481285        1.32550322702824
H           -7.25524059657210       -3.35290075368203        0.44875985482604
H           -8.77605468887196       -3.71690461213336       -0.38513723997656
H           -7.42479480762381       -2.98668243799912       -1.27577608793372
O           -8.72373418868328       -1.11296876910082        2.35463780331227
O          -10.33197828456690       -2.32494368997007        1.40485757353943
