42
 energy: -62.486133503363 gnorm: 0.000481384187 xtb: 6.7.1 (edcfbbe)
N           -0.89207609590679       -0.46499667741894       -0.35526572414731
H           -0.13685972356757       -1.09330946400923       -0.60130213796695
H           -0.72865054926408       -0.15063488900388        0.59750553378933
H           -1.85605841149447        1.02865296509890       -1.08357256100934
C           -2.18391800648471       -1.14585013916295       -0.43380880204701
H           -2.21921693877622       -1.65585604931016       -1.40594178673149
C           -2.44350532555713       -2.16016108209185        0.67559358783515
C           -3.25753097135101       -0.06105464568161       -0.47098826427874
H           -2.38279876014355       -1.67478757931253        1.64686282655216
H           -3.44103345410882       -2.57027037833775        0.56387473093738
H           -1.71299472643901       -2.96538673026260        0.63327122361105
O           -2.82437255477480        1.11507438594282       -0.96794277114593
N           -4.40963001908334       -0.34596380261817       -0.06907385630852
H           -5.75125527545605       -0.31647683303557       -2.29320841121197
C           -5.57821412511429        0.49993296885141       -0.03955893686900
H           -5.81362011203624        0.64027076226212        1.02056333809913
C           -5.50389543461984        1.86497303639571       -0.74354230114493
C           -6.69004034924146       -0.34154675223644       -0.63237851671065
H           -4.77067579658466        2.48362037060576       -0.22445478333661
H           -5.14136598741536        1.72943472287717       -1.76671942418879
C           -6.84948584287458        2.59970474271790       -0.78964569526253
O           -6.57102098626097       -0.67678969840112       -1.93201019596746
H           -7.57781080206653        1.97463815958447       -1.31928469961259
C           -7.39088963995946        2.88566147498164        0.60857623254888
C           -6.68152224112527        3.90591188302516       -1.56481373727901
H           -6.65359701944370        3.42667209487434        1.19821536530476
H           -8.28959269535685        3.49426330562112        0.54216974154635
H           -7.64764293536452        1.96408311715600        1.12339449768384
H           -6.31535938128980        3.71690167139464       -2.57169833358315
H           -7.63194946801741        4.42850117423541       -1.64005889520120
H           -5.97127771673914        4.55615670769958       -1.05846192517735
N           -7.64626353329378       -0.71235533034430        0.09619349064687
H           -8.62807047784086       -0.54302419279141        1.61891086692738
C           -8.72574455950327       -1.52733242239198       -0.41625415687184
H           -9.04168276437864       -1.21186418700084       -1.41827156944068
C           -8.33180062242468       -3.00801672930657       -0.46278977218712
C           -9.90799914519298       -1.37555699847252        0.55169238777637
H           -7.97038907318313       -3.32546756296754        0.51309077179141
H           -9.19953747398179       -3.60269613812219       -0.73396297124682
H           -7.54471428235697       -3.15774507917174       -1.19725661815388
O           -9.57908147881985       -0.78881766689422        1.69678543071477
O          -11.01304649574263       -1.77051831945384        0.30450184887359
