42
 energy: -62.486133509553 gnorm: 0.000480071273 xtb: 6.7.1 (edcfbbe)
N           -1.26314769160533       -0.54620213609873        0.44918522382368
H           -0.52729267040337       -1.19155020908760        0.18858822114288
H           -1.17285973790019       -0.36824815040953        1.44591846562796
H           -2.02958662856561        1.08542386232732       -0.11924665773795
C           -2.58234315650356       -1.11829284527552        0.17039780985968
H           -2.54400675257503       -1.54767184839014       -0.83856209026082
C           -3.02231669762028       -2.19397487618565        1.15901128831413
C           -3.57120900038872        0.04045909093111        0.10972742095910
H           -3.09188457867300       -1.77549447309606        2.16058888421096
H           -3.99716183038142       -2.57642072710746        0.88026060782275
H           -2.30551004612632       -3.01307802081724        1.16581540196615
O           -2.99774794718733        1.24112704222708       -0.11442572422778
N           -4.79298775313554       -0.18950277539998        0.27299470760661
H           -8.07237324441737        1.68717349031517        0.69708104157238
C           -5.83510416735306        0.80479175873514        0.18796445814968
H           -5.76974375024652        1.48606952488807        1.04844938993759
C           -5.74414724347205        1.61181723502566       -1.13044020992754
C           -7.14955096316020        0.05728763734283        0.23567147314066
H           -4.74476850619932        2.04442041812744       -1.17866949167332
H           -5.83780178501224        0.89153739512386       -1.94700667320483
C           -6.76082797302480        2.74008976809396       -1.33544710685024
O           -8.27396224460801        0.76217407509543        0.51080226790065
H           -7.77846465191888        2.33533313261437       -1.31491759016030
C           -6.62115008707589        3.83528026961800       -0.27789598707534
C           -6.54314837432686        3.34683245434334       -2.72237755871949
H           -5.61453769279168        4.24739607315685       -0.30229415868877
H           -7.32516927363895        4.64111469071726       -0.47439387426929
H           -6.80672377884580        3.46924557049193        0.73087214785605
H           -6.66555475099371        2.59202783796034       -3.49535726635452
H           -7.26005139879290        4.14383034395182       -2.90587555970214
H           -5.54063995286670        3.76123793426460       -2.80251110165944
N           -7.14773617455787       -1.18686827186790        0.08031989346371
H           -6.15692319212626       -2.62440429483930        0.07138358996244
C           -8.31958493985873       -2.01947500792304        0.13729406616650
H           -8.95169830344825       -1.78315065403706        1.00344131880645
C           -9.16608388477716       -1.91539158020122       -1.13508863083903
C           -7.80370530536452       -3.46437744870430        0.27871360484271
H           -8.54248445104212       -2.09165923534649       -2.00922896037020
H           -9.95379305953202       -2.66280113414406       -1.10338526520155
H           -9.60850387668279       -0.92494844958536       -1.20771500469067
O           -6.48472521130627       -3.55662555804595        0.18711587535173
O           -8.52917852470470       -4.40655759298962        0.44217661230057
