42
 energy: -62.486133506930 gnorm: 0.000480765107 xtb: 6.7.1 (edcfbbe)
N           -2.24958741762284       -1.63334261466120        1.53692476245417
H           -1.89635310444392       -0.88116283060259        2.11879298990426
H           -1.50487715162482       -2.30786430396751        1.41077323182498
H           -4.13476382781034       -1.63217620551555        1.95834888934266
C           -2.71167764282374       -1.11904102854585        0.25038501054880
H           -2.04863150948170       -0.36667523339052       -0.19787534732957
C           -2.89281452086358       -2.27842547310074       -0.73045037806042
C           -4.07670038568747       -0.48476741216670        0.48041505904553
H           -3.55296230309384       -3.02949947697400       -0.30198425477089
H           -3.32774001877307       -1.91038412634308       -1.65472228997266
H           -1.93400022424153       -2.74220687862760       -0.95234850335985
O           -4.74743918060762       -1.00334802255833        1.51989452937847
N           -4.42144374238242        0.45828059860512       -0.27181046683932
H           -7.21553877538073        0.81402079536668       -2.26090670704670
C           -5.72151984385875        1.09796204053545       -0.30719160801250
H           -5.91670667374452        1.54973609598908        0.67805223765195
C           -5.64347961051640        2.20331341994872       -1.36476235471056
C           -6.83862254661886        0.08888455580172       -0.51796864888706
H           -4.70856390166852        2.73761709587392       -1.18871164208478
H           -5.54576539594865        1.75100064487083       -2.35699912545139
C           -6.81143514684993        3.20108882623106       -1.32411381653671
O           -7.51303883700616        0.09434220984937       -1.69037058761163
H           -7.75226474350281        2.66494582954368       -1.15061893753595
C           -6.62959266614967        4.20320866438111       -0.18590463678868
C           -6.91422308518283        3.94260144880945       -2.65685700712447
H           -5.72339864284426        4.78602543529831       -0.33651163249587
H           -7.47431195730090        4.88689743725439       -0.14497571125102
H           -6.55768126762576        3.69703940901238        0.77334141099935
H           -7.11130088764016        3.25639791800645       -3.47881679142420
H           -7.72047232797813        4.67141226927128       -2.62505902073364
H           -5.98563004946714        4.46900003716015       -2.86666992893082
N           -7.06791161927428       -0.75866767012519        0.38035311347909
H           -6.66838024983553       -1.47616759006391        2.04718645016251
C           -8.06082268398421       -1.79473718258731        0.24699429984015
H           -9.02574934232544       -1.39576086185958       -0.09033454433132
C           -7.61583342090909       -2.89700974286221       -0.72219411919957
C           -8.23567814257918       -2.42795003202946        1.63568690765125
H           -6.64007150011082       -3.27777382528475       -0.42612387677799
H           -8.33750344001276       -3.70870771618543       -0.69869942362249
H           -7.54989241209398       -2.50024723971351       -1.73194902509018
O           -7.27857291530284       -2.11154856271493        2.49448397049473
O           -9.14323812510416       -3.16833658218087        1.90223282555990
