42
 energy: -62.486133505150 gnorm: 0.000481668238 xtb: 6.7.1 (edcfbbe)
N           -1.26077297939137       -1.16293611977185        0.39894866539063
H           -0.72586090839695       -0.30187274157437        0.44792536911884
H           -0.61616237692581       -1.91644834364201        0.19123057661996
H           -2.72254570138059       -0.82654958810989        1.61244421014745
C           -2.29506469927371       -1.06850007412593       -0.63169472906328
H           -1.97173433255041       -0.54796896611130       -1.54247015644618
C           -2.79167936627321       -2.46553590746929       -1.00552016985147
C           -3.45666582324476       -0.30228352742911       -0.03194659995949
H           -3.12285665475703       -2.99648378019112       -0.11513178675460
H           -3.62401345753092       -2.37687294563074       -1.69725182001476
H           -1.99603103984472       -3.03696456715156       -1.47870591753637
O           -3.54196149347746       -0.37649938149748        1.31978951295213
N           -4.27375806314763        0.29260818730390       -0.77579681480441
H           -5.78160770672089       -0.20381111151518        1.89336565439336
C           -5.40814679404098        0.97931749159297       -0.18562178515156
H           -5.12398197087724        1.45531665224113        0.76441865185274
C           -5.90794996367499        2.01964533250866       -1.18960746276429
C           -6.45938121588143       -0.07422013970491        0.07631982020954
H           -5.09155052548502        2.71292300084219       -1.39852792143320
H           -6.14181603623944        1.47703255299505       -2.10435707413646
C           -7.14435456504108        2.79384449367888       -0.72380118695339
O           -6.55146415478100       -0.49949059784502        1.38799803326491
H           -7.91669521217482        2.07347703876001       -0.43445812901240
C           -6.84036253037269        3.69691388184396        0.47041702093775
C           -7.68261218390659        3.63000746110729       -1.88291462667839
H           -6.03786637443135        4.39060280639445        0.22679120788997
H           -7.72247263646245        4.27457109703255        0.73723551198854
H           -6.54497284138304        3.12020743161602        1.34367585391232
H           -7.93878430109100        2.99143054423508       -2.72399280960312
H           -8.57494843081598        4.17272473068779       -1.58018999954679
H           -6.93575590305363        4.35049236694771       -2.21005838689402
N           -7.09949648299828       -0.56716664747730       -0.87654577166167
H           -8.36082550341210       -0.66194889401318        1.37121651428506
C           -8.05375866760983       -1.64217951044972       -0.81770601092757
H           -8.28366051771099       -1.88162556606987       -1.86235204373374
C           -7.54508387087364       -2.90845431376137       -0.11350585174461
C           -9.37871623846705       -1.21866574821932       -0.16413401954391
H           -7.36999305578806       -2.73360065045757        0.94583988741016
H           -8.27947736996596       -3.70246236325139       -0.22354493020315
H           -6.61053773214149       -3.22364398326368       -0.57274528266954
O           -9.28414860105035       -0.70055637546106        1.05985643922844
O          -10.43666297307640       -1.36639902410539       -0.70595651887149
