42
 energy: -62.486133500406 gnorm: 0.000481859623 xtb: 6.7.1 (edcfbbe)
N           -0.93905507184469       -0.61528166697977        0.69599947319165
H            0.02675598310717       -0.71991386039428        0.41027686373001
H           -1.16588524935957       -1.39849003759655        1.30269826462084
H           -2.13211072840138        0.72880056673285        1.40285137307514
C           -1.83227536971913       -0.60712285311850       -0.46104784185410
H           -1.40189764341465        0.08293130959310       -1.19880771391694
C           -2.04207768468656       -1.97289756204388       -1.11322516635424
C           -3.14536292390137        0.00947305930503       -0.00038477408444
H           -2.52444175886403       -2.65372007569478       -0.41490025221197
H           -2.67310078594524       -1.87149362423267       -1.98975803508978
H           -1.08563266552467       -2.39546160129590       -1.41517668548111
O           -3.05345687062708        0.79581182408887        1.07971521432225
N           -4.20494392109692       -0.21321826875298       -0.64299487379654
H           -5.21793955940241       -1.44804698043450       -1.61687872012328
C           -5.46746969690095        0.36599669855073       -0.23131432340784
H           -5.48703479267064        0.58434659393195        0.84139660222559
C           -5.68871780714974        1.66964004379095       -1.02317398337808
C           -6.53257005200575       -0.65809557084592       -0.56179833054125
H           -4.85900665105788        2.33788758877372       -0.78016881787809
H           -5.62412467196433        1.43013675982330       -2.08789974538554
C           -7.01268802996932        2.38515161155667       -0.74556742702937
O           -6.16577736873801       -1.60883298816845       -1.42933538716475
H           -7.83436697624122        1.70611710111097       -0.98958916596765
C           -7.13927091832549        2.80104852470948        0.71742400493352
C           -7.11820446969888        3.61328964862531       -1.64882313265638
H           -6.30882168822139        3.44411474795131        1.00231863748527
H           -8.06624250778744        3.34789761670408        0.87054665441871
H           -7.14665493759419        1.93359659928262        1.37119193895009
H           -7.05034471299765        3.33072007445110       -2.69688848955319
H           -8.06942086750408        4.11523484979787       -1.49163468433178
H           -6.31804501697427        4.31760551559631       -1.42978354499336
N           -7.68096860492830       -0.55537488338757       -0.05028214425901
H           -8.95585263518411        0.47231007266753        0.74906513178431
C           -8.73743849679646       -1.48702510821029       -0.38074829384150
H           -8.74823432274019       -1.73105493883616       -1.45090533795459
C           -8.61405788991043       -2.78793696242706        0.41992666596914
C          -10.06908661183248       -0.81629837366178       -0.01414677233230
H           -8.55679884951226       -2.56455705486467        1.48346824340192
H           -9.48522100239320       -3.40920476848853        0.23225717107055
H           -7.71603717579084       -3.32230198043224        0.11999655650918
O           -9.92552876214224        0.31175730612121        0.67097526541694
O          -11.13678149337987       -1.27956480489109       -0.30593942887275
