42
 energy: -62.486133518909 gnorm: 0.000479059954 xtb: 6.7.1 (edcfbbe)
N           -1.63976634166525       -0.97491471806897       -0.08750800420701
H           -1.04542521752770       -1.78894937383233        0.00760907632397
H           -1.21807573435171       -0.22325552212928        0.45126723700074
H           -2.53574335378930       -0.02492150464336       -1.45728541121431
C           -2.98636326618915       -1.24846282705089        0.41507235775038
H           -3.29074970638065       -2.22551263413513        0.02173599549614
C           -3.10615576387876       -1.26531930596641        1.93572261213500
C           -3.92700605641988       -0.22297861039849       -0.21678412019761
H           -2.79776347040271       -0.30611371222182        2.34717585718316
H           -4.13878324068343       -1.44268249452291        2.21375708535891
H           -2.48070441325431       -2.05005772447245        2.35637396836458
O           -3.44225061427539        0.33256708652354       -1.34655224195871
N           -5.03415726470739       -0.02805520053611        0.33210293937086
H           -8.26210672889290        1.28102325480832       -1.20906007208313
C           -6.12430408421281        0.81308617211079       -0.07581610894808
H           -6.37501459553988        1.39057099794316        0.82836110870354
C           -5.92655991286287        1.79516156976948       -1.25078981379493
C           -7.30375528309605       -0.12055685744366       -0.30488849897877
H           -4.85988524962129        1.96161495486671       -1.38696679997892
H           -6.28914572468259        1.33539261931030       -2.17487802004151
C           -6.59607294516532        3.16191162597325       -1.02951133501265
O           -8.39369806058731        0.36370154640262       -0.93741851682172
H           -7.58246677049358        3.03400159086493       -0.56179508835747
C           -5.75035978528818        4.02342045541088       -0.09332096955269
C           -6.78892182906197        3.87558379918346       -2.36665517375478
H           -4.78813912601421        4.24097405097909       -0.55153612246816
H           -6.25175974008186        4.96553009386180        0.11673167516112
H           -5.57117587601505        3.51398775453747        0.85073348329984
H           -7.43623256675470        3.30369030343000       -3.02911387130530
H           -7.23698731128770        4.85495896030091       -2.21508460727523
H           -5.82964297975502        4.01056568301195       -2.86097987984685
N           -7.22723400919353       -1.29509099473381        0.13121684040514
H           -6.31137786412819       -2.42198971991441        1.12974085533587
C           -8.26971759204047       -2.28149329499569        0.01649418978062
H           -9.23869499235649       -1.89391443125993        0.35672533097701
C           -8.42325926356102       -2.80956957910189       -1.41342299792992
C           -7.85328869411598       -3.44800565709851        0.93240010090645
H           -7.45854276121288       -3.14568835935696       -1.78823779484429
H           -9.11623098330085       -3.64615477669363       -1.41276386719739
H           -8.80268354678380       -2.02465559441486       -2.06252990736567
O           -6.64151064538109       -3.30147815895685        1.44979655090035
O           -8.55447790048980       -4.39994707192647        1.13881672330875
