42
 energy: -62.486133506010 gnorm: 0.000480888044 xtb: 6.7.1 (edcfbbe)
N           -2.06381773453513       -0.90292904750382       -1.74616919592627
H           -2.06993690311725       -0.04721131762106       -2.29229812894002
H           -1.97622419030748       -1.68061435443985       -2.39073806293577
H           -1.35217137819649       -0.40449019108191       -0.05893858609239
C           -3.30242231143510       -1.02280071020566       -0.96777559024846
H           -4.20547778911006       -0.77875425661857       -1.53576093904090
C           -3.40776866624372       -2.44901134132269       -0.42558098930809
C           -3.16606132367990       -0.07368704211912        0.22519548042045
H           -2.51509441344568       -2.69911299798247        0.14426448665519
H           -4.27537156752704       -2.53156545511341        0.22057813413339
H           -3.51227523026651       -3.15797812568487       -1.24413968762084
O           -1.89149802247765        0.04964569707310        0.62360264659898
N           -4.00999236618673        0.58647220786162        0.87976810507185
H           -7.61461819278578        0.43258043237448        1.68790048035850
C           -5.41350867112965        0.80625440716770        0.81452601754750
H           -5.68841239041599        1.03968379084524        1.85490753939526
C           -5.61781467316330        2.07934789270280       -0.05225034886306
C           -6.39222025449567       -0.23953655714889        0.31869081910035
H           -4.84598405568643        2.79066135310315        0.24711000425706
H           -5.42601565607742        1.79120677754177       -1.08805139997282
C           -6.99056179897720        2.75421628597697        0.04135198956921
O           -7.60826910245923       -0.22551118020188        0.98138184564301
H           -7.77867250707738        2.01714666472533       -0.14796030793542
C           -7.21700958400188        3.39748992565069        1.40899712742448
C           -7.09508041484106        3.82205031727411       -1.04721908279206
H           -6.47100885285910        4.16913104221314        1.58471650751214
H           -8.20168107629903        3.85791237759509        1.44966456837191
H           -7.14887313523156        2.67765643588241        2.22237873311134
H           -6.99315773474409        3.37574923319913       -2.03336040801146
H           -8.05974192560170        4.32132913772622       -0.99713994296943
H           -6.31376325329596        4.56855355999290       -0.92305281800255
N           -6.13118924181970       -1.03292376888364       -0.60948263734952
H           -8.68206373444101       -0.48747832220643       -0.46668789227266
C           -6.98907164703853       -2.04884475673175       -1.16724572041793
H           -6.34849160881074       -2.62307065680444       -1.84698161981473
C           -7.61179430698821       -3.00501112878418       -0.14304334771639
C           -8.09837385857432       -1.43181890336204       -2.03359893559681
H           -8.29682777649085       -2.48990959282938        0.52638747918099
H           -8.15247454426922       -3.78959120462695       -0.66655549862022
H           -6.82376519231100       -3.45936887394259        0.45383755902909
O           -8.92417028377973       -0.59585728048273       -1.40619440095426
O           -8.22346282218120       -1.69182015732667       -3.19593030284695
