42
 energy: -62.486133513651 gnorm: 0.000479774122 xtb: 6.7.1 (edcfbbe)
N           -0.84662038624378       -0.33568695177642        0.47962010376589
H            0.09495808273917       -0.46889685521868        0.13157451650449
H           -0.98404779983308       -0.98632890032641        1.24820367952687
H           -2.04002005757169        1.09962512559656        1.00370055625541
C           -1.83481667743708       -0.58769607360526       -0.56760581984608
H           -1.50753498443922       -0.03819798633074       -1.46042270656445
C           -2.02289387398889       -2.06111174287989       -0.92541884365566
C           -3.13377565090441        0.05821510772713       -0.10903784150295
H           -2.41351228136817       -2.60954691622620       -0.07094882398469
H           -2.72408678998258       -2.15766690994181       -1.74749059975058
H           -1.07157232787575       -2.49883291555223       -1.22202794370634
O           -2.98855359598229        1.06150335850540        0.76636951349591
N           -4.23649354308622       -0.35019430474602       -0.55867377591401
H           -5.22821128861440       -1.62481471989181       -1.43207605907027
C           -5.48738658167222        0.26446242080556       -0.16204674635744
H           -5.50853339581155        0.47345721623155        0.91243958084236
C           -5.66659505499070        1.58563017387905       -0.93858356866399
C           -6.57498730043145       -0.73003815515001       -0.51630557067783
H           -4.82267807711495        2.22738968333256       -0.67547064029104
H           -5.59519193524787        1.35680371128998       -2.00551512315147
C           -6.97109282918203        2.33945936279883       -0.67241603164102
O           -6.19391777868352       -1.74057025600937       -1.30432887441652
H           -7.80977051712086        1.69098574256838       -0.93892880273032
C           -7.10664910942706        2.74039783490847        0.79373852517447
C           -7.02192998634545        3.58166973393369       -1.56122510089155
H           -6.25928231102484        3.35081195339646        1.09993896870299
H           -8.01682847200255        3.31639410915318        0.94055833817405
H           -7.15379905052478        1.86468795140737        1.43489463130821
H           -6.94665406325085        3.31001292085411       -2.61171708243588
H           -7.95909339133259        4.11194512053443       -1.41255475133211
H           -6.20326517291631        4.25724753145460       -1.32091122365488
N           -7.75190330273772       -0.54861557887984       -0.09880634035015
H           -9.00788658431403        0.49680809305028        0.69791095937938
C           -8.82481701686943       -1.45355744818302       -0.45108043254736
H           -8.83135147962603       -1.67350106646390       -1.52648356932714
C           -8.74107539190489       -2.77621333145088        0.31884262104494
C          -10.14421915323525       -0.75991401061801       -0.08257421176176
H           -8.68558460231259       -2.58047628634260        1.38797266812279
H           -9.62762474294923       -3.36849975505542        0.11059584336298
H           -7.85610425561191       -3.32747060699719        0.01147093224367
O           -9.98064540558222        0.35593170504674        0.61783689356513
O          -11.22014312330000       -1.19763395034062       -0.38408285661456
