42
 energy: -62.486133510898 gnorm: 0.000480785426 xtb: 6.7.1 (edcfbbe)
N           -2.54473080805478       -1.97958897399839        1.64334185961062
H           -2.74725661232940       -1.73756020958390        2.60751020958411
H           -1.59139917936645       -2.31839212754427        1.59710651433977
H           -4.23539492192490       -2.49958054052664        1.00791771695380
C           -2.73532578960821       -0.82760962913522        0.76496217665346
H           -2.37688117713715        0.11941874078181        1.19029755228375
C           -2.03152928485167       -1.07364422147892       -0.56924775950740
C           -4.23837794125499       -0.69963540087090        0.50685625726876
H           -2.37799742254436       -2.00703777837664       -1.00763243138429
H           -2.25256627298917       -0.25855143648837       -1.25138664233343
H           -0.95437987510770       -1.13205056332720       -0.42645911651225
O           -4.89616749276736       -1.86069666822906        0.65573373472339
N           -4.65272663383328        0.42669067797811        0.15565482896965
H           -7.70026834817619        1.09804948980378       -1.91757634002335
C           -5.95146818095621        0.95683789781425       -0.16027642056435
H           -6.25203172399856        1.50360837288157        0.74808625732558
C           -5.72212064549588        1.99263155413084       -1.27986076630060
C           -7.10048707833899       -0.00170328326610       -0.44679337467575
H           -4.69226406062566        2.33629849379888       -1.17253974099576
H           -5.78141463405129        1.49850000508195       -2.25480002858707
C           -6.65638024145780        3.21337381014060       -1.22159107201571
O           -7.94494813534879        0.28055822708523       -1.46786385888694
H           -7.66875595678816        2.90170463293366       -0.93447883945912
C           -6.16682250059681        4.21036576202280       -0.17323035104869
C           -6.72762225513450        3.88978223154855       -2.59052760300233
H           -5.19282757142506        4.60461963391337       -0.45409227671759
H           -6.86216046131935        5.04188596650393       -0.08463793776297
H           -6.07506873533002        3.73717295212407        0.80120436366021
H           -7.13632786522271        3.21989066205607       -3.34543666663281
H           -7.35998705823217        4.77319145060295       -2.54535171029601
H           -5.73415847175577        4.19705931604689       -2.90963663301883
N           -7.25386929683828       -1.01264465497531        0.28098231368916
H           -6.61435222996795       -2.20327530936521        1.58588722967366
C           -8.32783361088593       -1.95612782813485        0.09907270347059
H           -9.29723083217138       -1.45769622248792       -0.02614892396877
C           -8.07935328910992       -2.87472139209074       -1.10406301160787
C           -8.36507066875353       -2.83368299315907        1.35734044547565
H           -7.10244798530051       -3.34493376979567       -1.01067267743081
H           -8.84703761796326       -3.64272465916075       -1.13779226066640
H           -8.10781627047983       -2.29510365726591       -2.02315335076840
O           -7.22915776215737       -2.82923118646063        2.03982924988200
O           -9.32217429983398       -3.48747366642004        1.67240178466444
