42
 energy: -62.486143125556 gnorm: 0.000732951583 xtb: 6.7.1 (edcfbbe)
N           -0.70567277025292       -0.04742007215335       -0.60339744491125
H            0.07898691674400       -0.42903046294017       -1.11723875475942
H           -0.48962882996357       -0.11997268048299        0.38695013000390
H           -1.82796901091063        1.49461675154148       -0.63459313747469
C           -1.93566415290452       -0.77923024277673       -0.90006167661356
H           -1.99255999006537       -0.88607462181210       -1.99152436056983
C           -2.01790810714781       -2.16231236078800       -0.25552628052409
C           -3.09917061426199        0.12489403600465       -0.49514116975454
H           -2.07778861092391       -2.07161577959233        0.82686775273738
H           -2.89613374605304       -2.69272911542730       -0.60812244194384
H           -1.13502399747914       -2.74474571182457       -0.51302579423834
O           -2.78918858973909        1.42693545616779       -0.45426086193872
N           -4.20707779380281       -0.40463438106040       -0.23236164045434
H           -5.06596941091575       -1.96364619005760       -0.28929379221425
C           -5.46320079645410        0.24695793535000        0.07896092833946
H           -5.49020122002860        0.43104790192352        1.16152178105155
C           -5.65586887524163        1.57767312619526       -0.66607919996623
C           -6.52112370665010       -0.81294989719305       -0.22353909146380
H           -4.84672896682882        2.23702648095606       -0.34904357302088
H           -5.52548321967801        1.38192165815015       -1.73347714830594
C           -6.98085808146667        2.31811247843415       -0.46072309454634
O           -6.04417440888252       -2.05913164710782       -0.33241274038835
H           -7.76184016804110        1.78881526609365       -1.00872781756973
C           -7.37605247417427        2.40659804919397        1.01025069292323
C           -6.85722018100114        3.72170917715823       -1.05377082079583
H           -6.58227330415951        2.87324486806351        1.59071606551728
H           -8.27536328766307        3.00838440664608        1.11899575531496
H           -7.57575627851386        1.41883958407367        1.41668879525731
H           -6.55896714438675        3.67327197594784       -2.09835179645724
H           -7.81042063951209        4.24120927343878       -0.99454954647727
H           -6.11442808502710        4.30330888626665       -0.51118387197629
N           -7.73946863767994       -0.51768016832371       -0.36592029835318
H           -9.21769649235307        0.63206714240577       -0.29591098952494
C           -8.70964915506119       -1.55678583266285       -0.64670616564117
H           -8.37486473982468       -2.21592916669610       -1.45687893289700
C           -9.00711467221094       -2.41049140417962        0.59347223727695
C          -10.01871075281863       -0.87454558727298       -1.05605819111894
H           -9.31923508589855       -1.77238809715988        1.41846579749369
H           -9.80416039920910       -3.11255763540084        0.36551658984550
H           -8.11548489102815       -2.95895809770058        0.88555331097028
O          -10.08930224398637        0.39973152376817       -0.68607265675373
O          -10.90977464527795       -1.44556270247507       -1.62107152621051
