42
 energy: -62.486133514202 gnorm: 0.000479965666 xtb: 6.7.1 (edcfbbe)
N           -1.52447437513022       -0.26601691434724        0.62517075965716
H           -0.78819230770066       -0.82753950627019        1.03988009570988
H           -2.16137768933881        0.01856867202806        1.36196613384076
H           -3.00818186952391       -0.35201303387844       -2.58088894118759
C           -2.25901060997408       -1.04616509445942       -0.35390779225632
H           -1.61720943718529       -1.13985889588261       -1.24380818424520
C           -2.65539659647141       -2.45327612127374        0.12612446726272
C           -3.52220527068512       -0.29351078167032       -0.71086536414149
H           -3.30624547577651       -2.36642201313345        0.99257229967337
H           -3.18530173033611       -2.99405978703677       -0.65464909602249
H           -1.76621917998868       -3.01836404668823        0.39822808623331
O           -3.75784302774419       -0.06975079757603       -2.04265393526427
N           -4.28544985862785        0.04509870856315        0.22145979575191
H           -5.72272391876287       -0.03707050566746       -2.21757592992467
C           -5.53992295871605        0.75400632914837        0.08625082265341
H           -5.85111329814455        0.95204807015891        1.11703074110930
C           -5.43350027191165        2.08065498434280       -0.67958019638409
C           -6.57798916472358       -0.17136364784065       -0.51305840063393
H           -4.73063693449756        2.71924800613672       -0.13974573448731
H           -5.01330732500726        1.90627391230074       -1.67312026380950
C           -6.77729341316947        2.80458634507847       -0.82864032868042
O           -6.51523893814594       -0.43820166771281       -1.82803122474950
H           -7.48078139711518        2.14187007337641       -1.34572443938871
C           -7.37769073662787        3.17906026394754        0.52407270545197
C           -6.58120455915257        4.05758104746448       -1.68115531532513
H           -6.66506833911430        3.75569926411082        1.10984430460496
H           -8.27008700541364        3.78325297264531        0.37963522994448
H           -7.66011993696080        2.29358328956786        1.08673259269738
H           -6.17340420736677        3.80494490588115       -2.65771284663822
H           -7.52955014266820        4.56775301902538       -1.83004539450806
H           -5.89567690455367        4.74479676706693       -1.18985281813148
N           -7.42811668311680       -0.69024166956878        0.25928140251319
H           -8.29588749723302       -0.71462765216740        1.85104732609909
C           -8.43038476658954       -1.61471541396231       -0.22294287838587
H           -8.89229527990249       -1.26554903521473       -1.15508909580850
C           -7.84705536849145       -3.01310662876412       -0.45456675352248
C           -9.51610572992998       -1.71405486130095        0.85906002292170
H           -7.34070876590742       -3.35668031967755        0.44535837647924
H           -8.65190566385089       -3.70128725872586       -0.69674042022364
H           -7.13437512872401       -2.98640083369570       -1.27511095129521
O           -9.18229171498762       -1.12036631150485        1.99850319478143
O          -10.55464778038965       -2.29040947900605        0.69218312260846
