42
 energy: -62.486133505347 gnorm: 0.000481138339 xtb: 6.7.1 (edcfbbe)
N           -0.93737919424231       -0.82326635262766        0.64052696823486
H            0.03162080773629       -0.90120292828946        0.35714347111764
H           -1.19967130758748       -1.70185933993523        1.07916695689575
H           -2.10434342433328        0.42409043933567        1.56118067018766
C           -1.80254877419599       -0.56084318511205       -0.50777769427663
H           -1.34147289359083        0.25286824908149       -1.08297167796664
C           -2.02842931273843       -1.75804741387270       -1.42986344678468
C           -3.11202768325447       -0.01269863300664        0.04145571160985
H           -2.47316207161684       -2.58378413428977       -0.87685586947800
H           -2.69763642634303       -1.47574122190202       -2.23601948963440
H           -1.08325764213041       -2.09061186789077       -1.85416943188782
O           -3.01952367515177        0.56671694675456        1.24619705702236
N           -4.16214868466717       -0.09283293231692       -0.64975222783214
H           -4.98469015420592       -1.75019461016189       -0.87424951435163
C           -5.43027312484510        0.41652828585392       -0.16224732845911
H           -5.38314355286845        0.67833562409602        0.90302665874101
C           -5.72858215776887        1.67995113089449       -0.99078872333953
C           -6.44202546721876       -0.70337284407959       -0.33084721705316
H           -4.92390872405094        2.38704917772179       -0.77064785846420
H           -5.64701581449078        1.40538907840473       -2.04483921862127
C           -7.07281480545057        2.37158818368728       -0.75731261014966
O           -5.92577836077135       -1.90145631679473       -0.65412230205533
H           -7.86504930303902        1.71835574562276       -1.12822471424633
C           -7.31885854452057        2.66468497616059        0.71973441740593
C           -7.10920734378878        3.66950614183824       -1.56375937576059
H           -6.50934853748972        3.26704356431986        1.12765536541264
H           -8.24905790673507        3.21433934638530        0.84218045605399
H           -7.38845868114185        1.74248708937750        1.28997314478970
H           -6.92921317785723        3.47388178087510       -2.61824495068457
H           -8.08121532671286        4.14612865925105       -1.46591820660800
H           -6.34958871783230        4.36314901060660       -1.20833359636878
N           -7.67988616386477       -0.48478508279337       -0.23184861377602
H           -9.14623617577099        0.60405552809637        0.11205764978392
C           -8.63740546444885       -1.55523858202015       -0.41182657239008
H           -8.43324366759204       -2.13087193435222       -1.32336208112464
C           -8.65754574821525       -2.51757013424842        0.78270673018734
C          -10.02811074088282       -0.91818048033272       -0.51989087122752
H           -8.82643589005038       -1.96372110730245        1.70448127537926
H           -9.45882696019490       -3.23902585675099        0.64919961689226
H           -7.70763799867460       -3.04128027955057        0.85157314607941
O          -10.06878413363533        0.34379244427564       -0.10810282936028
O          -10.99386833323089       -1.51538201126890       -0.90734784055346
