42
 energy: -62.486133517699 gnorm: 0.000479361204 xtb: 6.7.1 (edcfbbe)
N           -0.75207913449156       -0.12115540708048       -0.39342626710842
H            0.04783324590788       -0.28497140163620       -0.99230707432696
H           -0.58288141942263       -0.61007844376386        0.48145339486855
H           -1.86313775243824        1.33929006789440        0.21438756448455
C           -1.98033469134281       -0.61847466730152       -1.01220040930459
H           -1.98459977993205       -0.27267129171144       -2.05372520860576
C           -2.14243710482340       -2.13657860749313       -0.98838084639152
C           -3.14537848195282        0.07942131237505       -0.32599750079992
H           -2.09217963342454       -2.50415811267732        0.03507596771025
H           -3.11004284335093       -2.39945451673310       -1.40209228230635
H           -1.35797247667214       -2.61315496199571       -1.57242848392862
O           -2.83299489770721        1.23248444778756        0.28932781104464
N           -4.29307203427152       -0.43066715441139       -0.37987342311176
H           -5.41075236503205       -1.87589536190923        1.34681803802008
C           -5.44389986075772        0.22414512392740        0.21726779747085
H           -5.22526285379006        0.50046755931749        1.26062873322695
C           -5.83925793077649        1.48001474132504       -0.56886831114539
C           -6.52659307281504       -0.83240604927302        0.20325313492972
H           -4.96374118962547        2.12854420995098       -0.62964531458908
H           -6.10036559537398        1.16280606774949       -1.57925825884361
C           -7.00296839430642        2.26274790244892        0.04889147380871
O           -6.31232255055562       -1.90031538728800        1.00277129963636
H           -7.79326070673440        1.55725099100908        0.32088608874309
C           -6.56438250486686        3.01780564726990        1.30198238196005
C           -7.56211380178065        3.24386334186951       -0.98008194486316
H           -5.76503839511603        3.71634890275584        1.06330416546202
H           -7.39875767969940        3.57976127294197        1.71544030606216
H           -6.20569203899536        2.33711988911376        2.06996607090930
H           -7.93275547842753        2.71723641941381       -1.85610321337183
H           -8.38304166079662        3.81514076496675       -0.55320645702896
H           -6.78935618853268        3.94092964241538       -1.29762529248235
N           -7.50837956775581       -0.74171020347017       -0.57559102425401
H           -8.32997788102098        0.10185390000092       -1.93070901560126
C           -8.52364912909778       -1.76320063659853       -0.67264072758448
H           -8.08565518270436       -2.76587194154685       -0.75461101268602
C           -9.47852969408723       -1.73784910048273        0.52605225346325
C           -9.33461762143469       -1.46444542893659       -1.94405158195804
H           -9.89400542178957       -0.73945601080363        0.64975255718386
H          -10.28887833748997       -2.44047173783631        0.35376354960208
H           -8.94413186806500       -2.01532853512714        1.43105673583642
O           -9.05513937647655       -0.28303296061357       -2.48007594339915
O          -10.15438791001151       -2.21791013085973       -2.39024467125722
