42
 energy: -62.486133511727 gnorm: 0.000480247634 xtb: 6.7.1 (edcfbbe)
N           -1.55188017181890       -0.00440125923955        1.07026131437040
H           -0.66518914062684       -0.47759876954859        0.94225941473895
H           -1.76839577171256       -0.03074435271589        2.06317322655797
H           -2.47122782902700        1.61409948180594        0.50342429989105
C           -2.61237592247218       -0.68115242810615        0.32067032370995
H           -2.24028507519708       -0.82012287040650       -0.70358292884722
C           -3.03870722082828       -2.03160673523224        0.88784497203495
C           -3.77820497423124        0.29056091585164        0.22985723964208
H           -3.46293085556202       -1.90700320995281        1.88085819862262
H           -3.79461512504441       -2.47422926070454        0.24979923050280
H           -2.18331666405191       -2.70191614567959        0.94756111800749
O           -3.42656718774833        1.59104905944239        0.29632372465278
N           -4.94841181942261       -0.14534674797904        0.10436172144485
H           -8.41654787997334        1.45191882042767       -0.09414535669586
C           -6.08114278707068        0.73333767374430       -0.04567519937648
H           -6.10199717757471        1.47209196106891        0.77207870324053
C           -6.07504844590055        1.48244829455309       -1.40352982597930
C           -7.32189876656540       -0.12714784148251        0.04858525254647
H           -5.05233376940487        1.48682123473251       -1.78238630583571
H           -6.67859546979478        0.91111147091052       -2.11344814661091
C           -6.57248465926876        2.93418770321872       -1.34771146914214
O           -8.52302139197362        0.49678724200150       -0.00323516953827
H           -7.48112621019116        2.99898741732064       -0.73313208864879
C           -5.51993394749799        3.85232207075117       -0.73204041177361
C           -6.92738760025506        3.41114313145094       -2.75521570913336
H           -4.64001511825668        3.89092433040491       -1.36934496679118
H           -5.91151074169200        4.86115364062157       -0.62151805311594
H           -5.20762224002759        3.49301906251649        0.24450008593124
H           -7.72401906467287        2.80522044820224       -3.18186014012821
H           -7.25870607754425        4.44679318664683       -2.73339412316327
H           -6.05844589311689        3.34289005115196       -3.40558356598674
N           -7.20032629122199       -1.36863497172674        0.17173275236062
H           -6.10418562369720       -2.67093175944055        0.62215764649056
C           -8.30112750062702       -2.28909496578452        0.28197049302983
H           -9.07351923455209       -1.93116732457315        0.97523596350071
C           -8.94996136735937       -2.57555915007839       -1.07587695037807
C           -7.70617698433587       -3.59900418211631        0.83288115068357
H           -8.18853625181765       -2.87551803711492       -1.79288457015963
H           -9.67167149719490       -3.37996074153218       -0.96478559401275
H           -9.45366861536290       -1.68491420502638       -1.44332192364650
O           -6.38424720502068       -3.57801482607454        0.91615980860688
O           -8.37882568710637       -4.54482289672700        1.13991032770050
