42
 energy: -62.486133511569 gnorm: 0.000480002578 xtb: 6.7.1 (edcfbbe)
N           -1.68763826897751       -1.67017135208639        1.11205714847576
H           -1.43671278995210       -1.03277178800256        1.86096395400473
H           -0.87801601462766       -2.24365615273247        0.90641197860348
H           -3.60719438778374       -1.88365833942715        1.41864940215370
C           -2.11673278999850       -0.93118501813050       -0.07285135183293
H           -1.50209996873046       -0.04811368412534       -0.29731239355846
C           -2.11799200380056       -1.86182738281488       -1.28756569606083
C           -3.54169358974869       -0.47362329154884        0.18361477940815
H           -2.77359424491978       -2.71188135454532       -1.10962440436207
H           -2.46222725867974       -1.32235135520160       -2.16506678692112
H           -1.11298550524964       -2.23171246690492       -1.47952763122380
O           -4.23174191506688       -1.22487054763065        1.05194642939026
N           -3.99434053037089        0.53198196119353       -0.42651965262208
H           -5.17294375517127       -0.62796460454961       -2.01567616368960
C           -5.37902017950896        0.92881780544868       -0.23236660972196
H           -5.54098372452829        1.21278594368578        0.81261585685428
C           -5.66512360263274        2.11957118392711       -1.15879392912799
C           -6.31043334906121       -0.21720502005159       -0.54782736009490
H           -4.93709042687413        2.89839268947752       -0.92742255800950
H           -5.48670442104912        1.80284893147941       -2.18983927133102
C           -7.08525403644823        2.68193130857343       -1.04267046673929
O           -5.99648712336982       -0.95911624905263       -1.62975837898948
H           -7.79991454221701        1.86895482162269       -1.20916307750259
C           -7.34849272965932        3.27979910887875        0.33690746262629
C           -7.29973240293786        3.74372550290875       -2.12045220940653
H           -6.62409300238307        4.06177113171938        0.55567594616362
H           -8.34428483182804        3.71472990183846        0.37090617161222
H           -7.28818550811127        2.52066661960089        1.11145687947967
H           -7.14666884360527        3.32576053749120       -3.11292924364262
H           -8.31173373780069        4.13735174861934       -2.06879905983704
H           -6.60310978161422        4.56824467413737       -1.98364203852899
N           -7.33224298381262       -0.40940790416527        0.16033554998772
H           -8.57370685644470        0.25493727862186        1.30034186460394
C           -8.26824830294110       -1.47185200248623       -0.13150419240022
H           -8.44072695344431       -1.58605619305430       -1.20953909867734
C           -7.78088375295643       -2.80841001833499        0.43772069031534
C           -9.59684556466305       -1.10691145437119        0.54623759172220
H           -7.55325394277333       -2.69699223659928        1.49572921980534
H           -8.55713980346163       -3.55811640659330        0.31335159881571
H           -6.88165427488866       -3.12465702988584       -0.08483554611681
O           -9.50520925858337       -0.06318493624499        1.36142987746641
O          -10.61305429432613       -1.71860016643910        0.36626980611530
