42
 energy: -62.486133520963 gnorm: 0.000479154114 xtb: 6.7.1 (edcfbbe)
N           -1.46861581781097       -1.08665973123863       -0.18354064197498
H           -0.91285590340554       -1.93144052039928       -0.24059850966891
H           -1.01056470951006       -0.46315099456791        0.47601022425103
H           -2.32938227178245        0.15258429134662       -1.33596274288033
C           -2.82502551183643       -1.38524370562092        0.27769103664679
H           -3.18084906652390       -2.25136585486528       -0.29440765914832
C           -2.93806545011368       -1.69247807734900        1.76799555978732
C           -3.71503478655039       -0.21106312512269       -0.12851606857836
H           -2.56821601368771       -0.85270826684299        2.35323166760815
H           -3.97888770211167       -1.85717932307966        2.02231454047734
H           -2.36133532313276       -2.58061022034110        2.01732057441956
O           -3.21408549501924        0.52582794726061       -1.13793494533705
N           -4.80195770111253       -0.06719015721649        0.47609953418846
H           -8.16462383621634        1.64755108832901        0.67429363204477
C           -5.84956923163382        0.89294162914315        0.25610163812244
H           -5.87669159501280        1.52381915321316        1.15689561372287
C           -5.70576164990488        1.77635792788445       -1.00189956951357
C           -7.13236473234734        0.08577357253273        0.21499044105948
H           -4.73528424443182        2.27097301993719       -0.94712600341746
H           -5.68607661301657        1.10924892184797       -1.86604165030976
C           -6.78114223218205        2.84647378890348       -1.22234039582071
O           -8.30391499033847        0.71824129924922        0.45542639208401
H           -7.76595609521624        2.37264336030149       -1.29802312941530
C           -6.79674822906319        3.88792900853330       -0.10261266997952
C           -6.51198558102149        3.54543197386420       -2.55566613150694
H           -5.83204136818043        4.38830846182733       -0.04804186833731
H           -7.55868498095224        4.63965124093858       -0.29801617760528
H           -7.00084042440050        3.45225648120461        0.87454135646475
H           -6.52701698804373        2.82966842654638       -3.37388447739726
H           -7.26844544135953        4.30283051842773       -2.74869398235044
H           -5.53741696190663        4.02833144058449       -2.54129775998172
N           -7.05360089741598       -1.15069272703708        0.01217973018207
H           -5.98524024431985       -2.54888520696487        0.18427394267443
C           -8.18223701674986       -2.04341326530883       -0.00095293400424
H           -8.89249816951839       -1.82285062258935        0.80725715045253
C           -8.92838275454238       -2.00572933690649       -1.33781672459284
C           -7.61288161097137       -3.45752796899757        0.21789924913488
H           -8.22806449368604       -2.15638243489803       -2.15675141970785
H           -9.67139672020678       -2.79808486498479       -1.35430074622513
H           -9.42010043467438       -1.04421635060169       -1.46312091203833
O           -6.28788300921133       -3.48839035337280        0.27876406153481
O           -8.30446495028358       -4.43360612841027        0.31319568753044
