42
 energy: -62.486133506699 gnorm: 0.000480591079 xtb: 6.7.1 (edcfbbe)
N           -0.77194514931456       -0.19466260869323        0.24442134330384
H            0.14069385241528       -0.36162919131729       -0.16165700149348
H           -0.83417695324428       -0.74640949806096        1.09568049169006
H           -1.94289967856944        1.30198813550541        0.65583204073737
C           -1.83720827144334       -0.58269414248760       -0.67838641892488
H           -1.59718532257398       -0.13732329146462       -1.65338492564951
C           -2.01973248135719       -2.09021923809026       -0.84680815831378
C           -3.10772216654622        0.09899736742214       -0.19056238760994
H           -2.33780221093652       -2.53912095848858        0.09167467094215
H           -2.77361570140075       -2.29253534522498       -1.60043469120221
H           -1.08252336276646       -2.54769627811648       -1.15812060670506
O           -2.90781990602372        1.21900405459691        0.51632777089768
N           -4.23071486147447       -0.39930229228805       -0.46174835893914
H           -5.16424679231272       -1.80665008968681       -1.08197417764116
C           -5.48095458813726        0.22281455235356       -0.07349151173002
H           -5.49622319785001        0.43528121145198        1.00099686766598
C           -5.65794572640602        1.54317869836510       -0.85270056541460
C           -6.56468622110005       -0.78854281161771       -0.40938083098564
H           -4.82394292112979        2.18977557066438       -0.57232329061499
H           -5.56212201628113        1.31321266859211       -1.91745923332069
C           -6.96654473545377        2.30135996964989       -0.62320554062077
O           -6.13828412914388       -1.90916281693895       -1.00073810446140
H           -7.79383389346313        1.68650154948321       -0.98485985692906
C           -7.19164518934887        2.61692285813563        0.85264216792194
C           -6.94046980604199        3.59485786164724       -1.43709181339512
H           -6.35076516754581        3.18058000249318        1.25232471142379
H           -8.09295824875400        3.21268815751032        0.97388555505701
H           -7.30651446861257        1.70470665118789        1.43159068598852
H           -6.78151363691289        3.38494943537393       -2.49236328882549
H           -7.88455350283470        4.12341933359005       -1.33305232538486
H           -6.14123963942417        4.24797065048359       -1.09200330721735
N           -7.77594523380155       -0.53064850720027       -0.16491295305299
H           -9.11113096049948        0.59000427427165        0.40966437813459
C           -8.82097916741643       -1.47167438453797       -0.50839927572431
H           -8.71287143539039       -1.83631968746181       -1.53793983258520
C           -8.84761302930268       -2.67787980521439        0.43809980407100
C          -10.16139635297893       -0.73602505067619       -0.38079269601492
H           -8.91770189272795       -2.33918372551741        1.47009931860002
H           -9.71056369321674       -3.29588043583428        0.20677958865494
H           -7.93985405289746       -3.26309494077164        0.31636189661999
O          -10.06737419762479        0.44087423089314        0.22688102852009
O          -11.19966515032726       -1.19445800917706       -0.77053617002605
