42
 energy: -62.486133513649 gnorm: 0.000479727734 xtb: 6.7.1 (edcfbbe)
N           -1.63702792651000       -1.00320698973235       -0.64683831990062
H           -1.31257685435601       -0.25548004711406       -1.25077085335983
H           -1.40182282808545       -1.88707840594637       -1.08269252560276
H           -1.50532242708018       -0.26472786509991        1.07662664865183
C           -3.07583937310970       -0.90434464289477       -0.40583339311621
H           -3.63242679061776       -0.63906557204119       -1.31446937622467
C           -3.59145506556935       -2.23810321060409        0.13709539209391
C           -3.28995398220534        0.14565657086322        0.70176511137725
H           -2.99515339874090       -2.53821786312092        0.99606868528392
H           -4.62614061759704       -2.14022911499681        0.45257229014115
H           -3.52807385429569       -3.01318321554117       -0.62474676314203
O           -2.20981054595167        0.29055960462579        1.47554934161709
N           -4.32125817632285        0.77183056802106        1.04828197915072
H           -5.41110825291769        0.25488236815856       -1.93055822238924
C           -5.58937757688073        1.01424857231362        0.42709062329359
H           -6.24009737772394        1.28249635368353        1.26777511053861
C           -5.45275456071979        2.24038138564083       -0.49603999011049
C           -6.29283838428087       -0.13545307946559       -0.27178305714864
H           -5.02687629135197        3.04268649710861        0.10851977123590
H           -4.72275145013217        2.02664178243566       -1.28658269370344
C           -6.77003702442863        2.71872950871761       -1.12077120548415
O           -5.96996358060014       -0.43643006194341       -1.55250338399671
H           -7.20938195774126        1.91070043815266       -1.71777229558706
C           -7.78426666810662        3.12480100604786       -0.05451755168843
C           -6.48413950324606        3.89898995601644       -2.04923227630512
H           -7.34948756863229        3.85387822297834        0.62507706152215
H           -8.65791846245300        3.57069762670747       -0.52389435236734
H           -8.11474847837881        2.26384333463794        0.51997078908147
H           -5.77171861800778        3.62563449323782       -2.82540000226406
H           -7.39962846993651        4.23262633727953       -2.53115077558206
H           -6.07155910037306        4.73117084080691       -1.48346568148138
N           -7.23293917709780       -0.71324925371573        0.33554435849675
H           -8.38720857814004       -0.80414267183714        1.76068363185483
C           -8.02936179002633       -1.74614992424438       -0.28674790398549
H           -8.33070048436698       -1.45770816047249       -1.30259727444421
C           -7.30551611890859       -3.09478566458180       -0.36020480024334
C           -9.29359020183501       -1.92294955081532        0.56894502538764
H           -6.93692418930799       -3.37548241224361        0.62465631665749
H           -8.00375067816648       -3.85197202244790       -0.70587299073324
H           -6.47052144996871       -3.03295100370787       -1.05340662034163
O           -9.24396460962258       -1.28742650453910        1.73252546530184
O          -10.22616881546845       -2.59017150174025        0.21824323077499
