42
 energy: -62.486133502407 gnorm: 0.000481870493 xtb: 6.7.1 (edcfbbe)
N           -1.32697079270055       -1.57597673766439        0.30266944161830
H           -0.38243480075263       -1.70472246736681       -0.03855986634915
H           -1.71856582722044       -2.49884547942934        0.46964824830925
H           -2.31908189692653       -0.59094229691458        1.60011375091640
C           -2.14635938382951       -0.86634723738873       -0.68128395982843
H           -1.55259381366740       -0.02414900768388       -1.05748930928482
C           -2.61484527434257       -1.72049932147687       -1.85641116588232
C           -3.33550479147076       -0.27076637501860        0.05830056848709
H           -3.15596047911124       -2.59082482472411       -1.49123400092089
H           -3.29234682645819       -1.13741769140164       -2.46997415653974
H           -1.76724511240562       -2.05141135534232       -2.45331992020235
O           -3.19092245865629       -0.19377938086293        1.39879308941401
N           -4.33308223922029        0.12184507490492       -0.59327653417785
H           -7.21805603972845        0.57753625854339        1.72681314166835
C           -5.46348162971856        0.72320938141248        0.06635743107208
H           -5.22764729103127        0.99921766906586        1.10753366775939
C           -5.84982560930948        1.97013846312089       -0.75333611530989
C           -6.61299573582490       -0.25433980465335        0.06713063840510
H           -4.96894566556217        2.61278876708540       -0.80993106238730
H           -6.06961727229234        1.61630814609858       -1.76116555105241
C           -7.03454821965171        2.77908588192986       -0.21588623033976
O           -7.51208288307641       -0.10754873505529        1.11393526025994
H           -7.88886936190685        2.11241741915745       -0.05589481960692
C           -6.69311948385022        3.48454577001558        1.09685567478471
C           -7.45217552054672        3.81444796891023       -1.25911841899540
H           -5.87928935693607        4.18942762296857        0.94021764095993
H           -7.55555758704284        4.03593107409824        1.46510154141333
H           -6.38456274909752        2.78607674912527        1.87258272127404
H           -7.75134546209994        3.32545572674325       -2.18254994484029
H           -8.29126407725807        4.40329408016786       -0.89587218064567
H           -6.62691193869768        4.48872625413881       -1.47718198009856
N           -6.71595703198582       -1.10960937029355       -0.83465671122381
H           -9.00144793702010       -0.37245856416011        0.11648203833377
C           -7.74217616310262       -2.10703439435411       -0.98410022614840
H           -7.40125563139315       -2.75204935764783       -1.80219928416434
C           -7.98536012396645       -2.96570201155078        0.26511782082068
C           -9.08231437249395       -1.50375555067798       -1.43381143886603
H           -8.37618656645661       -2.37203300266612        1.08861571986521
H           -8.69562086269849       -3.75449954702635        0.02995196099888
H           -7.04691775670122       -3.41681225751710        0.57978973211151
O           -9.58243615006270       -0.55106755067103       -0.64692205769175
O           -9.66030907655280       -1.87988599824198       -2.41290007079931
