42
 energy: -62.486133502331 gnorm: 0.000481169276 xtb: 6.7.1 (edcfbbe)
N           -1.31919882632711       -1.18121446509246        1.03155342452753
H           -0.33414649417668       -1.36071208711249        0.87838680080739
H           -1.73902880665090       -2.04217663898266        1.37253486332602
H           -2.47737068861495        0.11991110591269        1.86826155719027
C           -1.97621911160373       -0.76348304011437       -0.20589624520161
H           -1.34881526391841        0.01590500965639       -0.65903213739772
C           -2.19730969081459       -1.88412667341273       -1.22100413062190
C           -3.28522657808682       -0.09578647868384        0.19124556138375
H           -2.86030032590647       -2.64073205396528       -0.80648800651288
H           -2.65257178232333       -1.48130093892081       -2.11935798610039
H           -1.24843102482742       -2.34882399176760       -1.48200653942443
O           -3.31475660076076        0.38956334522731        1.44004484672743
N           -4.22187654294444       -0.01166862170046       -0.64501544207427
H           -5.44037438729205       -0.83097211918755       -2.10284717102937
C           -5.48237439019620        0.61613640282591       -0.29985770101882
H           -5.55228578279845        0.85379443640966        0.76599204248635
C           -5.65341550381185        1.89063243321083       -1.14249411633217
C           -6.54758508566355       -0.39328825480922       -0.65717293114349
H           -4.85283361724831        2.58240767521860       -0.87173575110799
H           -5.51984695224999        1.62519248563341       -2.19479543699975
C           -7.01086807790565        2.57778141199084       -0.96232554460885
O           -6.33637721578869       -1.06080158925614       -1.80217794668830
H           -7.80202801351966        1.84927147866227       -1.16877812559668
C           -7.19572796137830        3.10353591393216        0.45853595145449
C           -7.13378648972546        3.72466096961656       -1.96452877587059
H           -6.40239287812347        3.80493926181859        0.70923789458846
H           -8.14945112169027        3.61820677716426        0.54495601331787
H           -7.18507426767504        2.29234952321495        1.18065605706924
H           -7.04142689276340        3.36010703920874       -2.98520989846459
H           -8.09926268084646        4.21379167146547       -1.86305576732984
H           -6.35472981072501        4.46443182515651       -1.79157008605616
N           -7.52486960218772       -0.57993417171139        0.11475144764634
H           -8.62861749561418        0.09514169152142        1.37670392745220
C           -8.56866009264061       -1.53240146901453       -0.19642958737410
H           -8.83171359394117       -1.52074154856308       -1.26187223699118
C           -8.16178701066083       -2.95643860228425        0.19607696791870
C           -9.80735357021090       -1.13256777860801        0.61986106200252
H           -7.84359067842346       -2.97681349920338        1.23648899008543
H           -9.01238839723740       -3.62026861923361        0.06978546190217
H           -7.34177291337782       -3.29354283572839       -0.43329306734218
O           -9.57410417752341       -0.16129929186596        1.49375564047785
O          -10.87624086142720       -1.66069151200141        0.48705111771026
