42
 energy: -62.486133507782 gnorm: 0.000480554316 xtb: 6.7.1 (edcfbbe)
N           -1.04816355950705       -1.66020494729024        0.18839873213346
H           -0.99499394143516       -1.76875821548168        1.19565857880931
H           -0.10286206643547       -1.64085144514126       -0.17474786841889
H           -2.64609807488352       -2.52779751627925       -0.28602870722786
C           -1.77015857286193       -0.43912896536527       -0.16650607876014
H           -1.55919677829583        0.41033834398107        0.49647944153331
C           -1.44516029823612       -0.04136484125233       -1.60611565141734
C           -3.26054321204535       -0.75443269847775       -0.07985168883061
H           -1.65780312234613       -0.86740882415821       -2.28160411473373
H           -2.05021854456768        0.81370483036998       -1.89175856326915
H           -0.39411250399429        0.22429364874932       -1.69755283987876
O           -3.52158537860746       -2.08120271584624       -0.25488883225802
N           -4.05292556867975        0.18711507437791        0.09892112991264
H           -5.12126958366324       -2.13281105333082        0.25712936176012
C           -5.47103823508308        0.39392208917597        0.16828750040520
H           -5.62165982143218        0.92238848682948        1.11911936493793
C           -5.70423630169478        1.40470638056203       -0.98487471407345
C           -6.47434534810515       -0.75521553042896        0.16550232308552
H           -4.89481009500283        2.13283104886728       -0.89428519647089
H           -5.56039586982368        0.86802589833194       -1.92558067080082
C           -7.03363414862496        2.15982877034386       -1.04863407229733
O           -6.08034406663487       -2.01553313301473        0.38347413774241
H           -7.81170964982479        1.46589354734432       -1.36940829171362
C           -7.42288748153865        2.76752947020305        0.29517499793665
C           -6.92093973342246        3.25918752906722       -2.10539891779839
H           -6.63455978995266        3.42458909006250        0.65723804247366
H           -8.33368372359188        3.35226917672264        0.19043797269751
H           -7.59840357116736        1.99168585864788        1.03545472260688
H           -6.62677902279490        2.84244870370285       -3.06581136278241
H           -7.87765098264176        3.75997546365856       -2.22994111038524
H           -6.18073630516752        4.00063105039927       -1.81102416098024
N           -7.69845473413967       -0.46755521139595        0.01963505668625
H           -9.17468324780356        0.70335058912811       -0.12105386809792
C           -8.69990023031706       -1.51237837527485        0.07277604110099
H           -8.41604118107918       -2.38396762738104       -0.52977165529302
C           -8.96268803368222       -1.97307436715292        1.51395526102745
C          -10.01296598478804       -0.93193667863184       -0.45898857239027
H           -9.22807906885896       -1.11920384095983        2.13526523752003
H           -9.78156119852202       -2.68703949239062        1.52157144801371
H           -8.07070378710420       -2.44355853498158        1.91898946283040
O          -10.06145810957969        0.39570949016651       -0.40984779367531
O          -10.92675032993444       -1.60902619014162       -0.84085919517487
