42
 energy: -62.486133512594 gnorm: 0.000479219509 xtb: 6.7.1 (edcfbbe)
N           -1.52695069947241       -1.47520478192506        1.08623520988885
H           -1.19708741269750       -0.73843270825324        1.70148633342292
H           -0.74649308327120       -2.09102237958095        0.89058032799478
H           -3.38906825597466       -1.60668922629891        1.61903778135474
C           -2.07146007301366       -0.91410855341120       -0.14845429427371
H           -1.49023790606269       -0.07192242534343       -0.55001039417961
C           -2.16887262119947       -2.00752607252927       -1.21455235842713
C           -3.47300806267514       -0.42308716824189        0.16979370416817
H           -2.79672015661332       -2.82307463635588       -0.86139191870634
H           -2.59573990368522       -1.59783344070831       -2.12542656279056
H           -1.18028469637111       -2.40142535617457       -1.44128760763712
O           -4.06016817899753       -1.01786174009349        1.21535539153422
N           -4.00327647189571        0.46623008361948       -0.54972630325175
H           -5.14666245901113       -0.71611427749891       -2.01181725863337
C           -5.37058801884022        0.87658413056593       -0.27494190249724
H           -5.49120624142981        1.13508371046097        0.78216446212676
C           -5.68994976270856        2.08649849630752       -1.16609937622087
C           -6.31206298807785       -0.26255893416134       -0.58539947647247
H           -4.94948464579461        2.85860837468372       -0.95100798072257
H           -5.55424982110424        1.78561753904273       -2.20805310347841
C           -7.10067237938046        2.65417724898301       -0.98253773771872
O           -5.98341389990771       -1.03423090946441       -1.64063901943282
H           -7.82538439909370        1.84531678348387       -1.12096278297868
C           -7.29794731948538        3.24575265740999        0.41070134949848
C           -7.36083503342992        3.72285723963012       -2.04327744463695
H           -6.57819811181978        4.04221802533041        0.58949121846244
H           -8.29883379315904        3.66035628034538        0.50171632761759
H           -7.17769097505220        2.48790264015869        1.17954497727232
H           -7.25765820122889        3.30957979357375       -3.04409269656148
H           -8.36749075603617        4.12032874461981       -1.94071966511108
H           -6.65483597436531        4.54385552778437       -1.93600878287662
N           -7.35573330910093       -0.41699948481789        0.10001974496931
H           -8.60929927222481        0.31410562967929        1.18581908722187
C           -8.31082422654172       -1.46204712890030       -0.19170090852048
H           -8.46146779724701       -1.59228461507437       -1.27132407609555
C           -7.87468866850492       -2.80076862739121        0.41249447190204
C           -9.64522093911358       -1.04788317378455        0.44656686935701
H           -7.66016941140627       -2.67548699797268        1.47175491802845
H           -8.67374775869335       -3.52674716479619        0.29126515964943
H           -6.97926027824158       -3.15837995570341       -0.08968682915559
O           -9.54884603607392        0.01767007471960        1.23203596490037
O          -10.67040125758991       -1.64307902580031        0.26199025712995
