42
 energy: -62.486133515084 gnorm: 0.000478926273 xtb: 6.7.1 (edcfbbe)
N           -1.29045984092500       -1.53274610070489        0.82488933811362
H           -0.27948147808381       -1.55655335833736        0.77997655582264
H           -1.62520111318093       -2.48554844044732        0.71010673183031
H           -2.69232944547996       -0.83295530645026        1.93397582860619
C           -1.84775841648454       -0.67550380553816       -0.21886661359062
H           -1.24628020566081        0.24097580315102       -0.25250252706547
C           -1.88000565775709       -1.30338061176999       -1.61238601528936
C           -3.24143570433030       -0.25991178881182        0.23339450445926
H           -2.42231691539889       -2.24794459128016       -1.58941287589975
H           -2.37986633613379       -0.62899508580402       -2.29996477906728
H           -0.86928754158694       -1.49234901674722       -1.96774144815547
O           -3.49427157134600       -0.43418068224991        1.53813042601789
N           -4.04318449382165        0.24524292823483       -0.60059389989832
H           -4.84648875606018       -1.55624592131912       -0.98077228672530
C           -5.37826307681113        0.63390436289619       -0.18886538512152
H           -5.39430164184193        0.95089114818537        0.86218365318356
C           -5.76291979766316        1.81019607013657       -1.10418214363972
C           -6.31281707241783       -0.55620501500772       -0.31859263889359
H           -4.99677161750816        2.57498298555612       -0.95621592613327
H           -5.67936050273697        1.46153458587241       -2.13539603872373
C           -7.14216355916958        2.43708023899036       -0.89493265924366
O           -5.76608677420823       -1.72262344513350       -0.71359643650414
H           -7.90155629553419        1.70531578678209       -1.17877973455891
C           -7.37141339877506        2.85226457993670        0.55564373323589
C           -7.28358312849211        3.65002484030319       -1.81413478987515
H           -6.59705291272398        3.54526534619490        0.87921019852127
H           -8.33499513847624        3.34611659437076        0.65516893346493
H           -7.36178183348854        1.98749610439363        1.21336935653622
H           -7.11861626349133        3.36948128919285       -2.85167102025139
H           -8.28151691025669        4.07258335470436       -1.72892565069388
H           -6.56126556767699        4.41897737993053       -1.54727214194870
N           -7.55252758178994       -0.40929770599355       -0.14454109147909
H           -9.05517640760449        0.60655919712525        0.25835518269866
C           -8.46187464516688       -1.52312803357597       -0.30360535015611
H           -8.26785342612131       -2.07594058179144       -1.23153684252748
C           -8.38145920421960       -2.49857268834232        0.87731522679315
C           -9.88609616647587       -0.95551053586728       -0.34615514028333
H           -8.53967492845993       -1.96406080640358        1.81213906602277
H           -9.14817265591343       -3.26036599012501        0.76791912024838
H           -7.40274795184332       -2.97078979302350        0.90027979260770
O           -9.97177258049605        0.30122473859971        0.07371785050249
O          -10.83600274421397       -1.59933387453471       -0.69619698471249
