42
 energy: -62.486123762293 gnorm: 0.000705314948 xtb: 6.7.1 (edcfbbe)
N           -1.11396037527144       -1.20354092817059        0.28760165252799
H           -0.21029840114373       -1.39712237670186       -0.12776394850727
H           -1.42476121488631       -2.05466538866623        0.74932835432887
H           -2.00930393133539        0.09992182262988        1.37940013981109
C           -2.08558540958419       -0.81510730450829       -0.73541347403665
H           -1.60174968069499       -0.06822563642226       -1.37719050642463
C           -2.60206706106614       -1.96294176724351       -1.59858099853178
C           -3.23154601936695       -0.10509264168486       -0.02985653614139
H           -3.02465975031323       -2.74181911031137       -0.96804979135009
H           -3.38655079854595       -1.59207835791450       -2.24817680986077
H           -1.79741182014912       -2.38700326776736       -2.19588295636721
O           -2.92976806072369        0.37599788890804        1.19734952949658
N           -4.33821227847813        0.00727781727839       -0.60923489519161
H           -6.76844665140537        0.40145749376656        2.00606909915763
C           -5.43745754383480        0.71341552561657       -0.00289584038576
H           -5.15914208149228        1.14062033000434        0.97465756470721
C           -5.86878737129401        1.82796097161915       -0.97243270404637
C           -6.58552169812531       -0.25206162803769        0.17510992398903
H           -5.01805331273672        2.49424796223954       -1.12807778242088
H           -6.09492677824584        1.33458259290136       -1.91779015759889
C           -7.08196608439593        2.63887322494988       -0.50542718851791
O           -7.21485196417950       -0.21330789940258        1.41061915412145
H           -7.87663529643447        1.94923733227521       -0.19977758607573
C           -6.73622692595701        3.55228726489502        0.66992491520088
C           -7.61300324607814        3.47366553013718       -1.66898228731493
H           -5.97208604953504        4.26871901381698        0.37540299414662
H           -7.61696550697690        4.10429399340563        0.99040457658889
H           -6.36214777970758        2.99179087524562        1.52393995135443
H           -7.92137053331316        2.83017091542586       -2.48880688187811
H           -8.47149503169966        4.06224709103068       -1.35402931804733
H           -6.84401334454496        4.15230307918141       -2.03193045567974
N           -6.91569443289007       -1.00659200005813       -0.76127322245034
H           -8.90230926489047       -0.37799666815770        0.76551487739353
C           -7.96957877223612       -1.98580183526712       -0.77025730527596
H           -7.84043450135011       -2.54125466640876       -1.70629857563624
C           -7.93694025848216       -2.97086429109384        0.40661501220371
C           -9.36300932885010       -1.34051406050965       -0.83322147106554
H           -8.11739169156474       -2.46823922501566        1.35439688207369
H           -8.69711922419107       -3.73441443171056        0.26126017980882
H           -6.96003284606907       -3.44734849611849        0.44807809913691
O           -9.64533730977265       -0.47438353621100        0.14035593790088
O          -10.15937162322728       -1.61072084772145       -1.68574297342848
