42
 energy: -62.486133509509 gnorm: 0.000480291549 xtb: 6.7.1 (edcfbbe)
N           -0.95050426584553       -1.26547458476485        0.47430656190956
H           -0.81277791144846       -0.91053717511979        1.41488646816615
H           -0.03905217748626       -1.37795716343187        0.04654424095437
H           -2.52130150101269       -2.30651203780364        0.57864632328538
C           -1.78503107213894       -0.35432616274116       -0.30854710947798
H           -1.58203654347225        0.70806276852669       -0.12058605978918
C           -1.60910625054505       -0.64206714030474       -1.79950242537596
C           -3.23516406060329       -0.63835011834465        0.06529576371345
H           -1.81464609468756       -1.69016063493135       -2.00661693083055
H           -2.29672526218027       -0.02742190828980       -2.37227039448722
H           -0.59148004500234       -0.41662775216743       -2.11123525386726
O           -3.41944366729126       -1.91345020697932        0.50913346191632
N           -4.07154823054045        0.27375627197273       -0.06882116439281
H           -5.04700391035523       -1.92126513693271        1.03123154269989
C           -5.48916772118928        0.41280869050225        0.10165744555741
H           -5.59034691754190        0.97282171161113        1.04654637539222
C           -5.97815054770792        1.32771011920552       -1.03922883002883
C           -6.41350217468116       -0.78721463134884        0.28143382218982
H           -5.10963646679364        1.87527832059204       -1.40787790326658
H           -6.35065973651357        0.69885101423856       -1.84794935268923
C           -7.06024951860473        2.32973499206862       -0.61915745691202
O           -6.01796680862485       -1.86112000418738        0.97425720322682
H           -7.79284714278879        1.80899167840038        0.00424717747559
C           -6.45990831627950        3.48107623219117        0.18543595716396
C           -7.76820971389471        2.88149040827881       -1.85536240048767
H           -5.75569058326563        4.04151920243022       -0.42561400556311
H           -7.24210194940658        4.16050295901117        0.51584943544888
H           -5.93290736187047        3.11982439322928        1.06501573527008
H           -8.24785992535674        2.08754236028283       -2.42159662797841
H           -8.53109610737998        3.60018044723654       -1.56635474673734
H           -7.05484815563044        3.38437869065755       -2.50483029987069
N           -7.59970352534286       -0.66040770555515       -0.13607994027350
H           -8.75957832038548        0.09687419458983       -1.29941600801625
C           -8.58414984319255       -1.69932291002544        0.05818221397679
H           -8.15423545019630       -2.70440744292119       -0.04097479169098
C           -9.25236589614966       -1.58187420675710        1.43304980629351
C           -9.66194184051765       -1.50773000184966       -1.01800299301750
H           -9.65303883824934       -0.57879585309759        1.56687843557146
H          -10.06316822527272       -2.30163186725769        1.50147211541570
H           -8.52415459749300       -1.78077982606043        2.21549874101669
O           -9.56234193858540       -0.35008578374864       -1.66103038896833
O          -10.52054265111912       -2.31590990740041       -1.23957863896249
