42
 energy: -62.486133525151 gnorm: 0.000478246013 xtb: 6.7.1 (edcfbbe)
N           -2.21259599149864       -2.50778425195600       -0.48750793222221
H           -1.26084256432987       -2.85331446224282       -0.52099329848688
H           -2.64918554766507       -2.72644650652005       -1.37930749773843
H           -3.78111596455055       -2.49410615931635        0.62998651632495
C           -2.23391626698983       -1.06075431286040       -0.27615439406796
H           -1.59504593101039       -0.85273951312728        0.59264988291811
C           -1.75399908940983       -0.23348401724358       -1.46534504307985
C           -3.65991932752654       -0.69379937180244        0.11923687822863
H           -2.36625845103877       -0.44701961994442       -2.33852841162074
H           -1.85159099251247        0.82083921741811       -1.23192734221512
H           -0.71419462614510       -0.46068817368288       -1.69313822415341
O           -4.33786770778801       -1.69335917120804        0.71324406411865
N           -4.05557299639449        0.48106929737332       -0.06696941678334
H           -6.48789907166778        0.62562053994644        2.34559597247456
C           -5.38040000169728        0.98431395006740        0.18654989776362
H           -5.28181266099388        1.68867788168516        1.02617888221088
C           -5.80668104000562        1.76138125976912       -1.07170656562079
C           -6.43825297446685       -0.04555143662747        0.51484951502522
H           -4.98948733879561        2.43031122038024       -1.34351321673727
H           -5.93036152931612        1.02506243881626       -1.86587282779742
C           -7.10641896771044        2.55513096521464       -0.90744114327334
O           -6.97778699996766        0.01086841964172        1.78685186800588
H           -7.87486959036706        1.89338967022429       -0.49242276085169
C           -6.92979704717431        3.75342319747065        0.02327551304027
C           -7.58446196878552        3.03118539189971       -2.27762577841920
H           -6.15760425870420        4.41715550245092       -0.36001649040081
H           -7.85929927979244        4.31352852531222        0.09427862901302
H           -6.64885244775190        3.44661749578313        1.02811272828788
H           -7.77006629769656        2.18314105859709       -2.93151479784128
H           -8.50751551508137        3.59812263831736       -2.18314890360786
H           -6.83402615099950        3.66847677556243       -2.74070025304019
N           -6.78300086856812       -0.86672679675977       -0.36259987728056
H           -8.70056159001337       -0.26834880529611        1.24785757944040
C           -7.76379233130682       -1.91245642589955       -0.23560604883864
H           -7.65008915763680       -2.52627634157776       -1.13671011838452
C           -7.60637534278441       -2.80409919278555        1.00362333587041
C           -9.19179130812072       -1.34905380559484       -0.26299773561609
H           -7.84092625855569       -2.26532249553447        1.91896547665964
H           -8.27013425212631       -3.66096167381520        0.91831014769187
H           -6.57742328043292       -3.14976229282524        1.06411500492795
O           -9.46916383677323       -0.43870373066250        0.67172004820771
O          -10.01523441331883       -1.70958250485251       -1.05471876618180
