42
 energy: -62.486133511265 gnorm: 0.000479776073 xtb: 6.7.1 (edcfbbe)
N           -2.06720799761570       -2.17826651346751       -1.03613572025232
H           -2.20880050936674       -2.79457509019546       -1.82542343085578
H           -1.67526904994169       -2.72834610094250       -0.27881178724148
H           -1.24262799117816       -0.60979815382892       -0.62579395770250
C           -3.31464339309371       -1.53548072575273       -0.60995583876242
H           -4.02017660114178       -1.55919736661355       -1.44372685353994
C           -3.93075886239034       -2.22595601418917        0.61083391730123
C           -2.98337053964572       -0.06881181569929       -0.23446888940414
H           -3.23305876848432       -2.18821238934572        1.44654458075778
H           -4.85037530126937       -1.73380257221038        0.91233689377372
H           -4.15208076205612       -3.26758142361012        0.38205604870003
O           -1.67390103709266        0.19331124541072       -0.25461511057077
N           -3.73731960248476        0.83567169938293        0.20437130472302
H           -5.06298910586838        0.45412650764169       -2.16514345497270
C           -5.15000763589523        1.04115349253997        0.16676495107759
H           -5.48821441797027        1.06419411513758        1.20959117464743
C           -5.37809727032387        2.43898871915896       -0.44994189672523
C           -6.00743985536297        0.02881644768238       -0.55716516011808
H           -4.80282369846794        3.14596640129673        0.14777170299128
H           -4.95330744683593        2.45599985258514       -1.45840155201741
C           -6.84556527646941        2.87664984743227       -0.51146056072285
O           -5.75058120427360       -0.15992017891383       -1.87359866217901
H           -7.41853751511153        2.13296518896242       -1.07751797701108
C           -7.45851764093596        2.99821866936834        0.88096135500960
C           -6.94058303157644        4.21485254839934       -1.24327439179052
H           -6.87153960191856        3.67822946907868        1.49434132527172
H           -8.47146826868654        3.38666432367621        0.80953388053256
H           -7.50517728773112        2.03176906960506        1.37486591901628
H           -6.52968982758691        4.14042115998475       -2.24786250141036
H           -7.97779313083667        4.53069677116076       -1.32219846896401
H           -6.38839873097892        4.98006855155778       -0.70237401911327
N           -6.97508184545380       -0.51477306759049        0.03844295353587
H           -8.19876625456246       -0.45753450822425        1.40370101509210
C           -7.89301445654593       -1.39634060402195       -0.64802883626378
H           -8.09644678426794       -1.05646840513216       -1.67184709361055
C           -7.36919420639206       -2.83543234990112       -0.70148819234992
C           -9.20909851140369       -1.39555608518625        0.14478962315373
H           -7.12714208771455       -3.18192525439748        0.30140966068869
H           -8.13691236480741       -3.47759531288762       -1.12374507074013
H           -6.47761322005083       -2.88449067171810       -1.32192726737480
O           -9.11613101944012       -0.80465615968431        1.33026615675541
O          -10.21538816689402       -1.90139457362944       -0.26509192223538
