42
 energy: -62.486133521326 gnorm: 0.000478907294 xtb: 6.7.1 (edcfbbe)
N           -1.53442752376562       -1.03708376260558       -0.43884018145494
H           -0.91337645783824       -1.83712640608748       -0.43022602646204
H           -1.11077448487179       -0.31635984350302        0.13981430591454
H           -2.54751972492232        0.00518436257010       -1.69044578142793
C           -2.84761616190044       -1.39138870059654        0.10163851406119
H           -3.15920979911850       -2.32294697665569       -0.38816185725151
C           -2.88687107037067       -1.58262180510238        1.61438020112327
C           -3.82927026944747       -0.31794985108739       -0.35782274911845
H           -2.54330832264596       -0.67949900265335        2.11438170190574
H           -3.90719670386047       -1.77724006165890        1.92453655270310
H           -2.25192017097377       -2.41544266556862        1.90970069111789
O           -3.44987613547110        0.32375402057759       -1.48265210562312
N           -4.88459628656644       -0.15367410777767        0.29681316714857
H           -7.22132324093433        0.93984961875028       -2.14711602062532
C           -5.95523712075509        0.76750766709453       -0.00836125629525
H           -6.28739405613145        1.12109911644054        0.97770201096002
C           -5.61947177846232        1.98285539351573       -0.88108139795075
C           -7.08315498828926       -0.10665480731772       -0.54232448883864
H           -4.67589044877030        2.39678266855133       -0.52025106720229
H           -5.43605644462862        1.67068372551048       -1.91358640945249
C           -6.69533785298181        3.08105396534939       -0.82153339963998
O           -7.62304795892080        0.15730466108521       -1.74735622382381
H           -7.69192703970689        2.62354166070160       -0.79437753987510
C           -6.53853199210572        3.92721301345439        0.44045453838433
C           -6.60452539208869        3.97401516619540       -2.05895719339445
H           -5.58119432614177        4.44422885901868        0.43234826304256
H           -7.32903343228013        4.67199364536106        0.49755404390520
H           -6.58886664019788        3.31060077182525        1.33446809055456
H           -6.78138296141688        3.40825147968279       -2.97231497957947
H           -7.34270417659454        4.77082563367994       -2.00751557521421
H           -5.61724213549063        4.42628771346997       -2.12432142454466
N           -7.43663497841489       -1.08392556199240        0.16596736782571
H           -7.24675771062973       -2.00953188978588        1.68204481130243
C           -8.45053328922935       -2.03026830345813       -0.22995122341847
H           -9.38397862256022       -1.52842225929658       -0.51467222742454
C           -7.99891854050076       -2.92803361306918       -1.38761370810893
C           -8.71781100320366       -2.92210598048499        0.99531541055896
H           -7.04744416630207       -3.39542542696275       -1.14119357483748
H           -8.74448822093091       -3.70094415095821       -1.55170724708932
H           -7.88162958963342       -2.33946796393241       -2.29356504334605
O           -7.84545998089857       -2.74019453804778        1.97701678061760
O           -9.61425007539376       -3.71875130970555        1.04074755879020
