42
 energy: -62.486133492676 gnorm: 0.000483012678 xtb: 6.7.1 (edcfbbe)
N           -0.87902374333762       -0.85718961329728        0.20983371400148
H           -0.50443809253039        0.04610993530098        0.48325692852974
H           -0.11365998315099       -1.41335152866428       -0.15307061172932
H           -2.32613753687797       -1.11807650324504        1.41673689156250
C           -1.93020889845876       -0.69915765325680       -0.79588483413312
H           -1.72665553971123        0.08707996904514       -1.53435210375252
C           -2.15778431698931       -2.02430461334970       -1.52426183463448
C           -3.20242427156964       -0.33966171176090       -0.05289965178014
H           -2.36448048824725       -2.81700761925140       -0.80833085235198
H           -3.00286904232081       -1.92720518308931       -2.19853221489788
H           -1.27607490496454       -2.29480260786448       -2.10116725191103
O           -3.23007686405094       -0.78043287825260        1.23543281949514
N           -4.11762065043495        0.28412418697487       -0.63599919686490
H           -4.98240215175892       -1.45422672578267        1.17992242166105
C           -5.36959531519631        0.63439494077522        0.00943770306285
H           -5.18519922977934        0.92665283269885        1.05696788870814
C           -5.98020776309549        1.79859661503015       -0.77165761387960
C           -6.26872843274248       -0.58514007388491        0.04684252904167
H           -5.19298431252250        2.53706105798968       -0.93277274823992
H           -6.27960183418431        1.41595436428223       -1.74671628878641
C           -7.17332946167868        2.46398805712186       -0.07697448120412
O           -5.85249523210087       -1.63023263602432        0.78485579607963
H           -7.82950633111255        1.68085994250206        0.31333097591537
C           -6.71947484358371        3.34808986903309        1.08339021045328
C           -7.95932044213162        3.29896063549053       -1.08623266399026
H           -6.07302149765679        4.14523957999302        0.72150169167985
H           -7.57896652068388        3.80125737935443        1.57203552763457
H           -6.17332184908382        2.77576747542991        1.82926450608986
H           -8.34564172380077        2.67608631754097       -1.88902162567134
H           -8.79980773733703        3.78970131512458       -0.60108648111102
H           -7.32091783664272        4.06504279284999       -1.52130063817776
N           -7.35492306708556       -0.58238971529102       -0.58922111752192
H           -8.40993047902843        0.16813681765500       -1.83512057610790
C           -8.25290497396260       -1.71283869293192       -0.59677114121780
H           -7.71841651959144       -2.66161477251497       -0.73157826388206
C           -9.08054960358089       -1.79014737099595        0.69125494073077
C           -9.21622887657035       -1.50818375837583       -1.77684056925557
H           -9.59236547273780       -0.84484317257489        0.86177965373942
H           -9.81867322869791       -2.58145654100471        0.59577659838282
H           -8.43117153321914       -2.00063143166760        1.53734458512809
O           -9.13461668577907       -0.29913620059784       -2.31754700435703
O           -9.98043397461800       -2.35309891999606       -2.15269053942890
