42
 energy: -62.486133517129 gnorm: 0.000479417640 xtb: 6.7.1 (edcfbbe)
N           -2.66064863121701       -2.08686628915378        1.61822678317067
H           -2.82364649656209       -1.70763212789183        2.54508705840333
H           -1.74211007155959       -2.51337365161962        1.61053783136238
H           -4.43808231010257       -2.48813842437649        1.06832478629188
C           -2.76011984166693       -1.03995268990946        0.60458355632260
H           -2.25530087312458       -0.10313111459400        0.87699595379677
C           -2.18791375496117       -1.55181764953376       -0.71771976534094
C           -4.24659274598234       -0.74709344553446        0.41060696741239
H           -2.68752035708635       -2.47332651575739       -1.00871527065512
H           -2.33915513329212       -0.80651325870795       -1.49259576539427
H           -1.12217856945906       -1.74807473535693       -0.62035475296502
O           -5.02996369502471       -1.80529835814795        0.68228651454239
N           -4.55354616849012        0.39078030128452       -0.00876212943753
H           -7.63986227439677        0.87046754585848       -1.98992065761106
C           -5.81932598209901        1.01245306187722       -0.29554899511339
H           -5.95891969933530        1.72943345967539        0.52822776713545
C           -5.61684720645144        1.81825266915877       -1.59247139920577
C           -7.07231160772853        0.14616912759259       -0.29432478347411
H           -4.56957056892256        2.12431078896833       -1.60284308004897
H           -5.75230080363103        1.16047739156110       -2.45737924904721
C           -6.50029475826874        3.07185483329061       -1.70798751343310
O           -7.93906485589938        0.23370388793603       -1.32966037027836
H           -7.50663780569629        2.85969225418719       -1.32599691977406
C           -5.92125944385726        4.21438176873857       -0.87616267953883
C           -6.61666782177387        3.50111792763076       -3.17046977356934
H           -4.94477972115056        4.50259710517365       -1.25891273528746
H           -6.57579501940132        5.08197529703192       -0.91550211720166
H           -5.80741705664329        3.92122669095419        0.16440550055398
H           -7.08613917623796        2.72813596915725       -3.77691974048777
H           -7.21479809821350        4.40528275097411       -3.25438370147128
H           -5.63036298879838        3.70486465732052       -3.58160282260470
N           -7.26976920788875       -0.61503122824692        0.68480756886103
H           -6.55453887619041       -1.58256954632768        2.09072399140951
C           -8.41458169371891       -1.48277771125063        0.80505341286506
H           -9.35591789960580       -0.92923131717495        0.70295302233243
C           -8.39153978594678       -2.62613046088178       -0.21772794043249
C           -8.34077281828727       -2.11123257173710        2.20357654438084
H           -7.43514625421841       -3.14259856204261       -0.16530262207183
H           -9.19245582907449       -3.32588402039830        0.00463372545838
H           -8.52621353434394       -2.23003716029160       -1.22070925034789
O           -7.12442267707529       -2.07191752463227        2.73158155780939
O           -9.28169913138969       -2.62057461666567        2.74829655452296
