42
 energy: -62.486133526223 gnorm: 0.000478484612 xtb: 6.7.1 (edcfbbe)
N           -1.60330365840319       -1.90285562668842        0.81184495720716
H           -1.51865223137899       -1.61897064737189        1.78214762335636
H           -0.70960047613876       -2.27764969581881        0.51718493556826
H           -3.46306668204589       -2.38571040154920        0.71196467662550
C           -1.99686707912055       -0.77289521902721       -0.02643491923551
H           -1.51457178387433        0.17553326207355        0.24602437706436
C           -1.69130082436024       -1.08293528582342       -1.49281069388193
C           -3.50192063487235       -0.60305307791528        0.12584015124111
H           -2.16992108107035       -2.01496798921902       -1.78776913101341
H           -2.05745010523095       -0.27561726059402       -2.12056657337861
H           -0.61819938402195       -1.18139024436801       -1.64235052166878
O           -4.15081624807900       -1.71755697557254        0.51121794812657
N           -4.00862526700012        0.52162505385643       -0.11010455932024
H           -5.24461862957548       -0.98987746553669       -1.67883730449772
C           -5.42100994963156        0.82043467558452       -0.07628850674823
H           -5.63558844066245        1.26455794519375        0.90124536596995
C           -5.68359644540207        1.87005358095550       -1.17489878863292
C           -6.36128688171299       -0.34545974796821       -0.26981187083294
H           -4.94159440911680        2.65919512702455       -1.04625435705439
H           -5.50233592434565        1.40482060302938       -2.14811917303784
C           -7.09215869746513        2.47159259567099       -1.16208318471303
O           -6.09782434828463       -1.19976091536279       -1.27849545616401
H           -7.82424300090408        1.65788642649898       -1.18495568021638
C           -7.33998713237337        3.30950493691773        0.08911147585557
C           -7.28616277703123        3.33112690504404       -2.41072388904875
H           -6.61278876066797        4.11618121787036        0.15507560805974
H           -8.33522122755719        3.74529997472144        0.05444332918615
H           -7.27169770091980        2.70403168072959        0.98833026410677
H           -7.15541668431367        2.73944960658969       -3.31407572809550
H           -8.28613523333326        3.75706865174079       -2.42498920450780
H           -6.56533909877364        4.14602455924768       -2.42590994911626
N           -7.42941812492740       -0.37692611869929        0.39805515306559
H           -8.66194333503700        0.48896703423766        1.40567039046838
C           -8.42706054071033       -1.40014511119973        0.18032071258470
H           -8.56097491485902       -1.62503310549054       -0.88574482624372
C           -8.06388420398263       -2.69342765487964        0.91774494605497
C           -9.75193806984634       -0.87053433008785        0.74609253251599
H           -7.90808737075927       -2.48542672184631        1.97431740006970
H           -8.87281718937104       -3.41024787660301        0.80928339155332
H           -7.14897036195057       -3.10765331889540        0.50169255983237
O           -9.61580903184577        0.24443193336561        1.45500848203062
O          -10.80398732951963       -1.42171661399030        0.57754250884398
