42
 energy: -62.486133513974 gnorm: 0.000479672609 xtb: 6.7.1 (edcfbbe)
N           -1.28578840384135       -0.56886499898262       -1.85498071047160
H           -0.49323569533209       -1.16318375184887       -2.06369190998296
H           -0.92582929324462        0.35361486743425       -1.62585713291288
H           -2.98129208177506       -0.09106845039699       -2.58826712444034
C           -2.05824757536552       -1.09432874484982       -0.73123438095135
H           -2.19323300956238       -2.17015158824216       -0.90614135987118
C           -1.41937474514748       -0.88470302378536        0.63949950750435
C           -3.44358943200417       -0.45529152076186       -0.80428477350178
H           -1.23655312355640        0.17459158190435        0.80805471099421
H           -2.09385676415189       -1.24059605305268        1.41078322697707
H           -0.47592793441376       -1.42252280924781        0.70656774997332
O           -3.76877669625469        0.01958858008717       -2.01521896948044
N           -4.16425740053419       -0.45677982165509        0.22942921994793
H           -5.11508782230864       -2.11162493431430       -0.56888417368846
C           -5.50105557873204        0.10238085361018        0.30047042179130
H           -5.72606684648445        0.13141941121991        1.37457291585760
C           -5.55108920692116        1.53813162712531       -0.25482932931577
C           -6.51286151480132       -0.84037490071032       -0.32851812799403
H           -4.73075827449285        2.07678591887493        0.22918581281257
H           -5.34362195572567        1.50241753417770       -1.32463125632366
C           -6.84863934768271        2.32211012242656       -0.04401974392655
O           -6.06271838918041       -2.03549525595131       -0.75684920179298
H           -7.62181023485844        1.88097089519064       -0.67604791826067
C           -7.32152511581791        2.30238758620120        1.40654968798413
C           -6.62883310402074        3.76431781308198       -0.50173772812044
H           -6.53846973812187        2.66784289390142        2.06827959121482
H           -8.19218063657115        2.94361348177485        1.52204157091289
H           -7.59764202340795        1.29709976946088        1.71292233434301
H           -6.28670935058162        3.79321281576660       -1.53363248167841
H           -7.55618386443905        4.32736384123670       -0.43376040222349
H           -5.88345207418256        4.25485611807840        0.12154744277171
N           -7.72745029076341       -0.51044342555192       -0.39590797774361
H           -9.15799730385354        0.64108123774669       -0.07266683843320
C           -8.71120555374176       -1.40731189874545       -0.96506320551695
H           -8.37695215599655       -1.82062712396599       -1.92418598755579
C           -9.04795470642599       -2.56671029325823       -0.01782173638428
C           -9.99829443468990       -0.60344490043890       -1.18538047938534
H           -9.34978631950333       -2.17844652549507        0.95329349038782
H           -9.86418503857242       -3.14755209559848       -0.43822527391678
H           -8.17864364980253       -3.20638555803968        0.10990546229732
O          -10.03279959111152        0.53944456733366       -0.50946038615997
O          -10.90225500540482       -0.98934958700388       -1.87286941701806
