42
 energy: -62.486133512811 gnorm: 0.000479979223 xtb: 6.7.1 (edcfbbe)
N           -2.33157456401896       -1.51474512221905        1.86636821318736
H           -1.41119333641934       -1.93721820864735        1.90319508141374
H           -3.00945651963669       -2.24995135756214        2.05525849378082
H           -3.32751501685652        0.02651586836249        2.49208933709924
C           -2.58897053301403       -0.94848589576055        0.54200552232188
H           -1.74266954950051       -0.28810091787317        0.30379659367849
C           -2.75578321927024       -1.97637563962191       -0.57491384878490
C           -3.80643920283919       -0.04965104269496        0.68024508234710
H           -3.47633237493689       -2.73674794755295       -0.28232155453254
H           -3.11863707856883       -1.47884085281418       -1.46774725288663
H           -1.80429788628698       -2.45897308367162       -0.78913758727207
O           -3.99189632731856        0.45415727313521        1.91520476068906
N           -4.54214085571678        0.18573606311872       -0.31168328710648
H           -7.89951204406241        1.83525885829383        0.53245429593071
C           -5.67739271797817        1.07156798803080       -0.18172699539344
H           -5.53582031296756        1.79627307274757        0.63506219360514
C           -5.80477122638744        1.79047262128919       -1.53969188746644
C           -6.89804327699301        0.23961376679771        0.13719578226587
H           -4.83550824395977        2.25180331398089       -1.74047698950762
H           -5.95589449772834        1.01373056697758       -2.29106005002300
C           -6.89805107243963        2.85476096680729       -1.67718002085262
O           -8.03495251660613        0.88079030442602        0.48901088972588
H           -7.87903834148865        2.40032177549591       -1.49919410703123
C           -6.69155264086382        4.02088156157311       -0.71003120849136
C           -6.89749671115632        3.38077414740986       -3.11306525169041
H           -5.73310496975559        4.49816845868752       -0.90307975218395
H           -7.47457364710536        4.76448070196715       -0.84327344195315
H           -6.70278199918243        3.70572380744397        0.33201990120890
H           -7.07261866504461        2.57199443531080       -3.81816086644436
H           -7.67812815589507        4.12637739231105       -3.24563566468274
H           -5.94026451201228        3.84028735524703       -3.34888528178568
N           -6.79099555586336       -1.01182562202828        0.13752187340705
H           -5.67122285987231       -2.35062651496095        0.16378708789061
C           -7.84137939753487       -1.92047429112061        0.51509383973924
H           -8.40144877038055       -1.56631202865083        1.39035053696276
C           -8.82207306408194       -2.17500061136381       -0.63342807309796
C           -7.14007429154068       -3.24331634307903        0.87227418934594
H           -8.27817732825295       -2.48124579936832       -1.52461801693118
H           -9.51234803129128       -2.96362850327346       -0.34727705802112
H           -9.37948814201875       -1.26750620972353       -0.85203348032928
O           -5.85101289139861       -3.24914657750035        0.55048834124623
O           -7.70155891456062       -4.17354337824703        1.38013450404163
