42
 energy: -62.486133522135 gnorm: 0.000478253683 xtb: 6.7.1 (edcfbbe)
N           -2.47482533475649       -0.73837507010004       -2.09436093625541
H           -2.53200119870317        0.13243301979356       -2.61250554155760
H           -2.56144746768613       -1.50087589445498       -2.75682374090521
H           -1.40636806609404       -0.36748750127897       -0.52383260371807
C           -3.53527694236190       -0.81449567402174       -1.08831879705232
H           -4.51969585835248       -0.51453160971817       -1.46446351565130
C           -3.60769944272047       -2.24988824551436       -0.56045675044300
C           -3.11219839665448        0.09234892534050        0.07031977226284
H           -2.61518006134479       -2.58861809244570       -0.27023747071782
H           -4.25974830057298       -2.30553334786550        0.30596298596596
H           -3.99735614895278       -2.91517140840221       -1.32818714933870
O           -1.78866668156996        0.09743164312054        0.25031006655417
N           -3.79790125075416        0.76401600785491        0.88566131330842
H           -5.90123543495946       -0.18241363203530        2.86648286574947
C           -5.20859665731827        1.04683905067237        0.90579401604128
H           -5.35613038282691        1.59312689896150        1.84978860438607
C           -5.60476309065190        1.97511081115779       -0.25552473942893
C           -6.08163278206647       -0.18978867560145        0.95227776559087
H           -4.90395833777589        2.81171763235456       -0.26607700806700
H           -5.48782057152560        1.42544460906479       -1.18952785900525
C           -7.04105583088631        2.50267498085858       -0.16158320424099
O           -6.35553126861326       -0.68565241490939        2.17826974098273
H           -7.70811278139491        1.65959305213788        0.04896934170888
C           -7.19342283255301        3.54021966219808        0.94826945710211
C           -7.44698892696446        3.11582265887573       -1.50106161067259
H           -6.52488543528811        4.38039329786444        0.77390697596639
H           -8.21421137038474        3.91455153826374        0.97438617881772
H           -6.96670116658394        3.11833486535854        1.92387662884646
H           -7.39775767017159        2.37654002802389       -2.29725682777306
H           -8.46412028113232        3.49704939851234       -1.45255554395612
H           -6.78427987830210        3.94019589627817       -1.75513592737341
N           -6.43983142468962       -0.77250157738490       -0.10615775693242
H           -6.66185587473295       -0.85116850597533       -1.94308529379640
C           -7.19610012349043       -2.00501554184045       -0.08660331730617
H           -6.81135123534884       -2.71795751516265        0.65239225756458
C           -8.68159282546279       -1.74770169006068        0.19721883900257
C           -7.08574955059758       -2.60778740948653       -1.49177198345545
H           -9.08208824824150       -1.03078067472762       -0.51765479349470
H           -9.23306878767323       -2.67985158192135        0.11284149255672
H           -8.79953234560934       -1.35051716300616        1.20243597847123
O           -6.81135916830423       -1.69593697062517       -2.42330198211023
O           -7.25294360051476       -3.76878200826141       -1.73599774425609
