42
 energy: -62.486133518607 gnorm: 0.000479365585 xtb: 6.7.1 (edcfbbe)
N           -1.34198387128578       -1.65517246541334        0.27630002627637
H           -0.40336091905449       -1.80611669683360       -0.07325101909048
H           -1.76758905669539       -2.56911388720014        0.40912113015748
H           -2.31474427525105       -0.68016603625003        1.61311832983073
C           -2.13464735440688       -0.87889841938310       -0.67895547257404
H           -1.51884345253984       -0.02791649248478       -0.99860829302794
C           -2.60045671497494       -1.65644749096506       -1.90765637330228
C           -3.32193214373017       -0.30128827385883        0.07615485866575
H           -3.15619190596860       -2.53939079274079       -1.59939004841825
H           -3.26420381760208       -1.02985708469885       -2.49265782693665
H           -1.75064228593471       -1.96290932075217       -2.51430004860168
O           -3.18051130530007       -0.26773522174382        1.41967373249685
N           -4.31567832922574        0.11602060809668       -0.56528677870238
H           -7.11338420832460        0.39459620255063        1.83596101305709
C           -5.44554620583187        0.70776950215306        0.10346595814732
H           -5.21344755067335        0.95711632853985        1.15225507712475
C           -5.82248512989266        1.97477768733408       -0.68727702842912
C           -6.60164949448494       -0.26229591557570        0.06950873572087
H           -4.94563035803160        2.62470965649251       -0.71304452305972
H           -6.02648134700511        1.64531062093129       -1.70640840869117
C           -7.02224426007164        2.75590056831133       -0.14236586002933
O           -7.44300954516370       -0.22344324303783        1.17203859894647
H           -7.86345434566569        2.07042961706890        0.00815989936753
C           -6.69626887098671        3.44786093661910        1.18117072817042
C           -7.45513167377798        3.79748540648594       -1.17281778102061
H           -5.89321092388102        4.16790612030019        1.03798872355955
H           -7.56877728964630        3.97980042963391        1.55420933615131
H           -6.38046425088626        2.74158818629475        1.94649645011517
H           -7.74532498360990        3.31520591447098       -2.10270440420258
H           -8.30378826147702        4.36863992072424       -0.80373550386153
H           -6.63996108424288        4.48704261392719       -1.38123238637768
N           -6.76059064308849       -1.01541079936647       -0.91172622327552
H           -8.98465008534895       -0.38246312563408        0.23688833403484
C           -7.79968627165577       -1.98964562270101       -1.11347824763353
H           -7.50766110039185       -2.54063503839060       -2.01501407808115
C           -7.98075471484215       -2.98098829826276        0.04473581731406
C           -9.15942233034250       -1.34157859273781       -1.41895703024551
H           -8.32482970117295       -2.48202338856130        0.94807431873129
H           -8.70645355453472       -3.73947139133744       -0.23838964283180
H           -7.02945799008880       -3.46364315875337        0.25753511102977
O           -9.60718981301194       -0.47665812773491       -0.50879012120025
O           -9.79444983000842       -1.61091763073221       -2.39787404031725
