42
 energy: -62.486133510642 gnorm: 0.000480215760 xtb: 6.7.1 (edcfbbe)
N           -1.59489162403140       -1.23126377897012       -0.33676141173237
H           -1.05778337770761       -2.08971862997315       -0.32841844150104
H           -1.05189255082968       -0.52497861883691        0.15276532486072
H           -2.58704710036195       -0.17815083053325       -1.56493114190801
C           -2.88478861389262       -1.41585177748065        0.32916654321714
H           -3.31319584437836       -2.35486957338659       -0.04354000994608
C           -2.81434110943831       -1.47108695952661        1.85229134797180
C           -3.81313956102051       -0.30250918738930       -0.15514849753564
H           -2.36468607297929       -0.55933911853251        2.24097978887845
H           -3.81805999536971       -1.55710825353676        2.25271513043810
H           -2.22211616658040       -2.32471721467970        2.17499702264546
O           -3.44106774068636        0.24141075011236       -1.32801249819259
N           -4.81958181563378       -0.03671663112335        0.54173529741740
H           -8.21622779694943        1.62325795677049        0.60449732591783
C           -5.88146043086836        0.89713412433398        0.27856024633356
H           -5.94674139292741        1.52333603811926        1.18074926801625
C           -5.71181367074996        1.79152109517025       -0.96777443378098
C           -7.14942778453893        0.07071430725110        0.20038577396499
H           -4.73115103962036        2.26503432737375       -0.89522202331193
H           -5.69703356880140        1.13998288324419       -1.84295837803295
C           -6.76317426521261        2.88696135981169       -1.18182725454282
O           -8.33643882836095        0.69020110965067        0.39030191466646
H           -7.75358417528573        2.43198793692671       -1.29425444185986
C           -6.79154776492225        3.89924781691677       -0.03600196047892
C           -6.45007171076905        3.61574375430791       -2.48953175241522
H           -5.81550456869515        4.36834786994851        0.06985664271315
H           -7.52227770320621        4.67872167970340       -0.24177321522795
H           -7.04897599790909        3.44583510089069        0.92014970374536
H           -6.44775238211026        2.92020855474813       -3.32512434484058
H           -7.19378755264516        4.38494537769900       -2.68540103042247
H           -5.47212886728968        4.08891298370815       -2.43557431548364
N           -7.04694576756250       -1.16701050559252        0.01346361590724
H           -5.97408672034911       -2.55552100986364        0.22772608475166
C           -8.16548592901493       -2.07199116193912       -0.03670343300594
H           -8.90399248164132       -1.85800827282252        0.74751452495063
C           -8.86702600900091       -2.04175801576817       -1.39773883626000
C           -7.59078709320112       -3.48063984391579        0.20043757446327
H           -8.13805674973249       -2.18518041091607       -2.19266975739125
H           -9.60090348642058       -2.84170132049695       -1.43883564290405
H           -9.36388818707976       -1.08524455080129       -1.53956969574407
O           -6.26800881303184       -3.49857939864237        0.30764715655258
O           -8.27531894352846       -4.46358566500575        0.27076717686888
