42
 energy: -62.486133490305 gnorm: 0.000522336174 xtb: 6.7.1 (edcfbbe)
N           -1.15739835729402       -1.35593739886329        0.72853955203436
H           -0.15150905298633       -1.34476235702783        0.61490344941348
H           -1.45618114084647       -2.32757634792705        0.72081368810214
H           -2.49658520199091       -0.59237602046290        1.87302886340502
C           -1.82084659422297       -0.61707997159894       -0.34387820046301
H           -1.25972793244277        0.31152285968734       -0.50410757219349
C           -1.92878931084666       -1.37075588657060       -1.66929525809668
C           -3.19425487866391       -0.20722350880310        0.17223448194680
H           -2.42450805793252       -2.32936061129061       -1.52105105225646
H           -2.51138178275482       -0.78274447228951       -2.37054762549063
H           -0.94058223368305       -1.55172950383558       -2.08633096097820
O           -3.34228906056872       -0.26319780907900        1.50547839635966
N           -4.07354218375805        0.18523839383160       -0.64276747842586
H           -4.81047743415632       -1.71779054179454       -0.51521916442385
C           -5.38879847839006        0.58646315029886       -0.18288597563448
H           -5.35921412789987        0.90768154868517        0.86896006510200
C           -5.78226348974355        1.76878381963439       -1.08392502509427
C           -6.32828264287121       -0.60652140990185       -0.24749643493814
H           -5.00047241268433        2.52055486074574       -0.94743148297502
H           -5.72282937062009        1.42265447607771       -2.11711502294981
C           -7.14453484919026        2.42607742395843       -0.85165756881095
O           -5.75794924317076       -1.82482580974993       -0.33657527487887
H           -7.91924213767640        1.75064372015121       -1.21879008061257
C           -7.40179253177327        2.72463981942837        0.62242847021427
C           -7.21851911123107        3.71651297293596       -1.66782320819916
H           -6.60781144042243        3.34807394053384        1.02906408759114
H           -8.34384932823381        3.25569615002108        0.73688210935045
H           -7.45525706158109        1.80566800480791        1.19967533943189
H           -7.02015143001887        3.51938287924781       -2.71852835666738
H           -8.20775630999649        4.15938575961457       -1.58388013185410
H           -6.48770622678412        4.43907148312108       -1.30983396376774
N           -7.57827357381769       -0.44612029377297       -0.26526952113116
H           -9.14185242408449        0.57638621462061       -0.12702130307732
C           -8.46477172454105       -1.58835890123511       -0.33571765955667
H           -8.16205582469781       -2.28739566873921       -1.12512299554958
C           -8.53165950615146       -2.34746385904844        0.99630848949279
C           -9.87437359333135       -1.06596728362361       -0.63590445036647
H           -8.81015559474189       -1.66745887824619        1.79939265513027
H           -9.27561498464890       -3.13588413769923        0.92354462590323
H           -7.56286017339535       -2.78518007991763        1.22204538041398
O          -10.02537782598169        0.22891839366963       -0.38158933036966
O          -10.76469262054557       -1.76967098204340       -1.02459948350942
