42
 energy: -62.486133508500 gnorm: 0.000480950349 xtb: 6.7.1 (edcfbbe)
N           -1.82297298928050       -0.81462789280507       -2.23582732426344
H           -1.11614954340827       -1.46009262061616       -2.56563482205035
H           -1.39326803173239        0.10402099253756       -2.16983905019773
H           -3.63467720479336       -0.30709340895781       -2.60737560066453
C           -2.33891363971711       -1.21876041707779       -0.93023851979054
H           -2.54628153321988       -2.29557660171738       -0.98060031311340
C           -1.39826361279006       -0.94149103846873        0.24068239609590
C           -3.68557435109451       -0.52702710674218       -0.74473737581286
H           -1.15799397871559        0.11872061967079        0.28395906666673
H           -1.88464226733552       -1.21864502671713        1.16974544298568
H           -0.47685813314583       -1.50989580245804        0.13128668427970
O           -4.26144623102858       -0.11414641025516       -1.87916432253109
N           -4.16260405263154       -0.43294396028642        0.41695473980715
H           -5.59493467966173       -2.06989320195453        1.47114360186040
C           -5.46136323114959        0.16852192211994        0.69022936596084
H           -5.49403107529980        0.27268406141131        1.78473177704612
C           -5.69107706487410        1.53515565277005        0.04173155216945
C           -6.48962207269396       -0.86454049006407        0.28956882580914
H           -4.79990700425068        2.14352441539883        0.21408735156838
H           -5.80080277779662        1.39009266747087       -1.03184928244438
C           -6.92285272162459        2.26638374247090        0.58747812027625
O           -6.38683426992264       -2.05766756705225        0.91701182059207
H           -7.74573707642170        1.54914300620945        0.66056849987936
C           -6.65881506776833        2.85830342856255        1.97063636991510
C           -7.33119945132650        3.37527825718610       -0.38084199807261
H           -5.84714204053005        3.58169693333133        1.92397512837087
H           -7.54690042039693        3.36598629397566        2.33993461014733
H           -6.38984885303621        2.08778055895652        2.68883277551919
H           -7.59056459550511        2.96388078285821       -1.35326662386142
H           -8.19320379307962        3.91670667641401        0.00187259304793
H           -6.51455880848958        4.08235806190002       -0.51223909974172
N           -7.32366848997583       -0.62670507142697       -0.61899716086004
H           -7.79836155827690        0.40107229994479       -2.00864119666781
C           -8.26944136203130       -1.60911176022307       -1.09017749891363
H           -7.80732636574326       -2.59701796222826       -1.21455367115995
C           -9.46973510413033       -1.74089534972448       -0.14694162642788
C           -8.77331365898134       -1.11910880377732       -2.45769729362229
H           -9.91574214683798       -0.76340264325778        0.02602281066167
H          -10.21018905187636       -2.39432805525179       -0.59948423703955
H           -9.14971761926840       -2.15920562012981        0.80415130140644
O           -8.38001943236908        0.11245570362211       -2.75357786035911
O           -9.46963588940850       -1.78361500269916       -3.17398477096976
