42
 energy: -62.486133508733 gnorm: 0.000480441329 xtb: 6.7.1 (edcfbbe)
N           -1.38026709093703       -0.95597075562025       -0.72101197765389
H           -0.72911820325340       -1.73011686268456       -0.77305237473479
H           -0.94184253945536       -0.22471194767077       -0.16682111905543
H           -2.51692703270479        0.04972374380951       -1.88112240006097
C           -2.63383738005559       -1.36887222479283       -0.08894958991192
H           -2.94271444142517       -2.30868398779024       -0.56492368034944
C           -2.55486656417683       -1.57303197720061        1.42013997780163
C           -3.68727559356521       -0.33204436598768       -0.46315025467512
H           -2.21830755950765       -0.65943695609206        1.90451975192421
H           -3.54070121982349       -1.81650205586520        1.79919107107203
H           -1.86300590089417       -2.37787872221426        1.65993991925403
O           -3.41928056312378        0.32279748464295       -1.61499668112013
N           -4.70015817491541       -0.20870878354331        0.26504835986736
H           -6.31216853842023        0.41275729175673       -2.33590567932629
C           -5.80712208689529        0.69710830245887        0.04244717134098
H           -6.16147009414899        0.92634841432843        1.05453867829969
C           -5.52944125538264        2.00771078204191       -0.70129324779288
C           -6.87760645137372       -0.16572203451066       -0.59881255089186
H           -4.73903002137400        2.53422770657069       -0.16130522721591
H           -5.14054583608163        1.81218052414406       -1.70399655127165
C           -6.76768708743455        2.91053633856779       -0.79993548074655
O           -6.95939695987992       -0.18853576139320       -1.94347701415844
H           -7.61792048925221        2.31607475299222       -1.15455182865699
C           -7.13860743403287        3.51054641174490        0.55411802897136
C           -6.50596033084860        4.02789586827521       -1.80952465187141
H           -6.30525401426544        4.08252434761442        0.95682297216835
H           -7.99045524259416        4.17794015355557        0.44634960448971
H           -7.40656619025583        2.73691294729873        1.26846485244001
H           -6.29064439346223        3.62253857586362       -2.79623557562735
H           -7.37426287882156        4.67707415035218       -1.89170694828332
H           -5.65684425761186        4.63030708634242       -1.49382113197882
N           -7.56775777195579       -0.91064023858486        0.14429964277109
H           -8.14992381993479       -1.36684790381475        1.79398775186203
C           -8.53591943259417       -1.84412596912521       -0.38405125783433
H           -9.16986112997861       -1.38486935686558       -1.15299575069390
C           -7.86291696627633       -3.08777194961988       -0.97571481471678
C           -9.42130506235848       -2.28770690727446        0.79092922368368
H           -7.18732464751553       -3.52486436731770       -0.24317650351219
H           -8.62469015538288       -3.81579039376049       -1.24021001844466
H           -7.29656695526530       -2.81676152609405       -1.86302309738608
O           -8.96073697661608       -1.90015019619315        1.97312306786154
O          -10.41990251097435       -2.93748544197417        0.64878055179284
