42
 energy: -62.486130802822 gnorm: 0.000631836810 xtb: 6.7.1 (edcfbbe)
N           -1.73229230954494       -1.99297105306220        0.57175562055255
H           -1.39128919250982       -1.60731204189873        1.44641624254228
H           -0.97162962134647       -2.50509463974856        0.14053242239921
H           -3.62368234659119       -2.27199515199945        0.89548709295894
C           -2.20740394859079       -0.93016849515769       -0.31373234435093
H           -1.58387991093803       -0.02609743561070       -0.29997146175287
C           -2.29955206415751       -1.45209670843247       -1.74779506187296
C           -3.60790401864190       -0.55397585704899        0.13942197900389
H           -2.91953855510517       -2.34539595320118       -1.78173999735306
H           -2.74382945960984       -0.69084500652568       -2.38130639370728
H           -1.30945201948040       -1.69708364118131       -2.12680330217281
O           -4.25700813418673       -1.53056002075946        0.80697385845505
N           -4.05426775107987        0.58310156925097       -0.14110548131272
H           -5.99135960713232       -0.23329406746442        2.18304246907087
C           -5.39948361535808        1.03195705865376        0.15077229531708
H           -5.34609796600552        1.57955126283214        1.10385808441919
C           -5.80142176258852        2.00175617354174       -0.96660452267142
C           -6.41159341160014       -0.08480633822790        0.28965347184060
H           -4.98906225362960        2.72006374825629       -1.08299002377055
H           -5.88145229951291        1.41763157599768       -1.88260402472412
C           -7.12229232101185        2.73773775158506       -0.72456847496730
O           -6.69304238999548       -0.49920278912077        1.57734138214778
H           -7.91041375940700        1.99579400386050       -0.56076500287395
C           -7.05481502914575        3.66288455837380        0.48916846343743
C           -7.47938207770164        3.54535106177876       -1.97103622167449
H           -6.22741587234948        4.36241223878399        0.38806397001575
H           -7.97695315690329        4.23284088014101        0.57559269350833
H           -6.92536567382644        3.10412634816383        1.41291048465909
H           -7.56126084388579        2.89265856956464       -2.83606941615926
H           -8.43016526548565        4.05528159283555       -1.83608104223499
H           -6.71350725079584        4.29185248216129       -2.17164946384447
N           -6.97345522343627       -0.53083079038546       -0.73421497977797
H           -8.47921565169811       -0.64755300778808        1.35074564779570
C           -7.94179110224504       -1.59314939388778       -0.80407609615127
H           -8.05513820551233       -1.81109813154623       -1.87266743030785
C           -7.53583943343309       -2.87813127356774       -0.06919883287536
C           -9.32512368700761       -1.15493548674458       -0.29943175560973
H           -7.48256870507995       -2.72287670392587        1.00588196248231
H           -8.26073116674140       -3.66042030720101       -0.27998432559356
H           -6.55642083952876       -3.19576366934035       -0.41930386054780
O           -9.36300161217941       -0.66283797304440        0.93820206276525
O          -10.31609175749305       -1.26853102645917       -0.96318542677197
