42
 energy: -62.486133513652 gnorm: 0.000479356670 xtb: 6.7.1 (edcfbbe)
N           -1.52079773981864       -0.71976338709518       -2.03818075995913
H           -0.72426005729118       -1.30378795351433       -2.26112972101614
H           -1.18720380242831        0.23700698788480       -1.95831682255697
H           -3.33261347685925       -0.39198922210631       -2.62617166645729
C           -2.14350012865047       -1.13533112138700       -0.78311546302830
H           -2.25947559082116       -2.22694333186925       -0.82659164164681
C           -1.36377905372883       -0.76202931712474        0.47591181749985
C           -3.54815977771749       -0.54467764056459       -0.76622677343181
H           -1.21238398427418        0.31484564815410        0.51671442467171
H           -1.92790216189597       -1.05856900058894        1.35379746044408
H           -0.39471858842968       -1.25692313367637        0.48440156359569
O           -4.04169789567916       -0.23199376328245       -1.97016376173198
N           -4.15102319374064       -0.41637484830914        0.33501719157241
H           -5.14725985410208       -2.25905077730386        0.25731367503449
C           -5.50798609407046        0.09602076842668        0.40087699479839
H           -5.70470292335547        0.20807263635091        1.47718309622767
C           -5.71711632988123        1.45393869597569       -0.28694291522770
C           -6.48020546967355       -0.95272704109350       -0.10504229112271
H           -4.77569635614562        2.00659650076264       -0.24383305745168
H           -5.95658655119062        1.27915733985482       -1.33588039295926
C           -6.82171220323774        2.29097113268444        0.37006876179584
O           -6.05968393915366       -2.23296340730176       -0.07010196378637
H           -7.64324822709522        1.62233570868658        0.64222656212162
C           -6.30933859891073        2.97857286415405        1.63439066943822
C           -7.34462106142889        3.33661937079446       -0.61291482392486
H           -5.53165601469872        3.69775421990967        1.38468030166797
H           -7.11777625867543        3.51001792299078        2.13123637668859
H           -5.89492867547294        2.25852666442230        2.33550230398202
H           -7.75703504272889        2.86610547828147       -1.50202592458337
H           -8.12661332864419        3.93369011814500       -0.15012297135770
H           -6.54076709131815        4.00429429103815       -0.91773935484138
N           -7.63858477806509       -0.61463847015647       -0.46128709158746
H           -8.69376303468187        0.66969418180274       -1.18849293429929
C           -8.61187272032832       -1.58165780233648       -0.91423556241269
H           -8.15428302602816       -2.38027218082313       -1.51187174358737
C           -9.35971889418632       -2.21229180443671        0.26532081064201
C           -9.62599819636741       -0.83000681774288       -1.78979163394665
H           -9.77682780121827       -1.43268682349868        0.89974667161213
H          -10.16644535191756       -2.83378925925509       -0.11285278037016
H           -8.67787528964067       -2.82137657218904        0.85369522364013
O           -9.47452067981558        0.48825358908792       -1.76430907179596
O          -10.48185202228766       -1.38465626224238       -2.42180775062946
