42
 energy: -62.486127550283 gnorm: 0.000698647994 xtb: 6.7.1 (edcfbbe)
N           -0.84871670450347       -0.44524767186114        0.50370399417054
H            0.10043140500603       -0.54807246053239        0.16591258936447
H           -1.01647150884386       -1.18887255111231        1.17583688481340
H           -2.03861665572941        0.94783299929088        1.16559051075186
C           -1.81022228096075       -0.53956521455989       -0.59299666922471
H           -1.45512552466589        0.12467420188667       -1.39230471018744
C           -2.00210086384485       -1.94559413584008       -1.15903358659820
C           -3.11467301285107        0.05409291712203       -0.08404947753278
H           -2.39959178200499       -2.61014089887015       -0.39460273173317
H           -2.69780131220478       -1.91611530053869       -1.99100649807979
H           -1.05096573935747       -2.34132339356439       -1.50988633412777
O           -2.98099996482045        0.94898746640401        0.90385357221832
N           -4.20961326053091       -0.28420096936693       -0.60548293516366
H           -5.12060948533250       -1.78521581358044       -1.09584496829426
C           -5.46478037815064        0.28531608461968       -0.15464600246052
H           -5.43987524548571        0.51139421308615        0.91824774424314
C           -5.69005120965406        1.59219091221148       -0.94051085515655
C           -6.52669659233504       -0.76771870007226       -0.41493487909197
H           -4.85655285685582        2.25259374366998       -0.68727959432715
H           -5.61617540521258        1.35438569902884       -2.00474305305659
C           -7.00464375937910        2.33033891936234       -0.68336575155242
O           -6.07919533554623       -1.91819968745511       -0.93416936708996
H           -7.82743564239784        1.70414166642108       -1.03520361896749
C           -7.20910886930066        2.63344203078493        0.79801429381311
C           -7.01216068981382        3.62830220373998       -1.49031296515279
H           -6.36912737040697        3.20530801291020        1.18778371235285
H           -8.11579769836417        3.21682909418404        0.93835193411850
H           -7.30188600472033        1.71568780828506        1.37201924638912
H           -6.87041445775916        3.42607547324697       -2.54942914493437
H           -7.96136247621402        4.14297542989669       -1.36518436377844
H           -6.21577308221852        4.29091359548424       -1.15700225846365
N           -7.74369581244631       -0.52212798565764       -0.18840558416313
H           -9.11853903499016        0.59680477002557        0.31569296754061
C           -8.76323427481429       -1.51383578330065       -0.45680145197632
H           -8.63421003737494       -1.97071159844946       -1.44614477929114
C           -8.77455872988971       -2.62529098245589        0.59997676442085
C          -10.12149739904734       -0.80250599142834       -0.40795333500746
H           -8.86338887590249       -2.19162813480321        1.59438408778899
H           -9.62097716740850       -3.28242527678600        0.42116982781105
H           -7.85287140701030       -3.19860765821967        0.54285803611019
O          -10.06693389389628        0.41184567766253        0.12668030777703
O          -11.14017086377884       -1.30875856857898       -0.78984654039860
