42
 energy: -62.486133504986 gnorm: 0.000481238529 xtb: 6.7.1 (edcfbbe)
N           -2.25047822147318       -0.65894611146295        1.83702176194683
H           -1.28156287892767       -0.95433564746150        1.83104040308991
H           -2.77456968181220       -1.35074569944972        2.36690870067246
H           -3.34672512021350        0.89563711606234        2.13781043871588
C           -2.78075446108487       -0.58772698857439        0.47523899532745
H           -2.07140113938497        0.00698909147719       -0.11664882897935
C           -2.99229730822093       -1.94052281864980       -0.20005553101803
C           -4.06704190580959        0.22074996214370        0.54422813518526
H           -3.58409964905690       -2.59255902822742        0.43829619607357
H           -3.52528390955954       -1.79570124342848       -1.13330009266224
H           -2.03501698807726       -2.41816963504805       -0.39888809371997
O           -4.13223851354973        1.07730171849540        1.58346529273718
N           -4.95244529976854        0.07080788392732       -0.33380550778288
H           -8.53820123194551        1.33707019639262       -0.55121916958573
C           -6.16565162492451        0.84889508855799       -0.31423616504072
H           -6.19874211127841        1.53449618118503        0.54889299167752
C           -6.27559409795365        1.65453289734332       -1.62868247533328
C           -7.32918802509589       -0.10207194244637       -0.14914833450998
H           -5.36922100840149        1.46196837221427       -2.20517481949870
H           -7.11215651854131        1.28130940950809       -2.22579102065190
C           -6.42556756870372        3.16615122916752       -1.41743118311209
O           -8.57281647694440        0.39923327137845       -0.32375564476085
H           -7.22463658397074        3.35257721549118       -0.68692538594008
C           -5.13090587072455        3.76856398689866       -0.87706432719274
C           -6.81318078574561        3.84038050571300       -2.73231937492507
H           -4.33462793945696        3.66115525765988       -1.61048834838192
H           -5.26305526136685        4.82707133987768       -0.66455163989933
H           -4.82004043278156        3.27187393589653        0.03851740962796
H           -7.75733018430917        3.45108414921742       -3.10835581002070
H           -6.91798782953048        4.91366563997476       -2.59255941948983
H           -6.04753034317760        3.66583754294644       -3.48470965453162
N           -7.09738645543742       -1.28382656674164        0.20296055638401
H           -5.87857223304905       -2.44047410725014        0.68352654907197
C           -8.10274002881882       -2.28223355433317        0.45958318758371
H           -8.88521571639931       -1.91104573542964        1.13375950627009
C           -8.75824175915389       -2.79721048581885       -0.82561704462138
C           -7.36880722131822       -3.45064466386717        1.14288425027015
H           -7.99206448419853       -3.12106675970797       -1.52704697247174
H           -9.40243399807937       -3.63864092165127       -0.58642482703028
H           -9.34826358139410       -2.00743046348347       -1.28346403236509
O           -6.04842558474022       -3.31313322261872        1.12775820279128
O           -7.93369122219582       -4.39289197097431        1.62470584368754
