42
 energy: -62.486133510514 gnorm: 0.000480137005 xtb: 6.7.1 (edcfbbe)
N           -0.73782806662066       -0.13957398171465        0.07815448770544
H            0.14876743537690       -0.37120517877333       -0.35326535778860
H           -0.75667214645814       -0.57877233015177        0.99407191372010
H           -1.87417886328515        1.41437460631225        0.35132739016468
C           -1.85687598109416       -0.62350322873126       -0.72786354304401
H           -1.67498852986042       -0.29300392750962       -1.75946449325930
C           -2.04669216298698       -2.13912682219356       -0.71245725895843
C           -3.09550309296230        0.12135874909976       -0.24718400025187
H           -2.32993594602379       -2.47413491951368        0.28254522642549
H           -2.82672374456903       -2.42669604106768       -1.40933371372410
H           -1.12126802312281       -2.63329927580108       -1.00247331164828
O           -2.84664518888808        1.32307003117506        0.29125258758193
N           -4.22646014546974       -0.41576230341368       -0.36277061932744
H           -5.13943595865244       -1.82364667634471       -0.97591402584500
C           -5.47992295421289        0.22043733641306       -0.01207235391876
H           -5.52043835491783        0.42086874894027        1.06398506964102
C           -5.64569993332681        1.54707571648978       -0.78352048445321
C           -6.55886316046391       -0.78848239334376       -0.37972611422198
H           -4.82570118178761        2.19922118804985       -0.47812465344311
H           -5.52128257385226        1.32633652196746       -1.84752857244847
C           -6.96432589923164        2.29673633408461       -0.58365758848877
O           -6.11802903582472       -1.91762444968080       -0.94260199958276
H           -7.77886601471688        1.68221488163125       -0.97322032674184
C           -7.23116706075130        2.59915214693767        0.88798765796530
C           -6.92179566503086        3.59715542098374       -1.38567032249193
H           -6.40855832260367        3.17165184408750        1.31252383689497
H           -8.14335110763426        3.18185102809445        0.99032815652940
H           -7.34813663058878        1.68143656322640        1.45777310943562
H           -6.73554848244664        3.39642785209156       -2.43830890357032
H           -7.86999345671585        4.12186841528059       -1.30135715348998
H           -6.13364236708164        4.25004223617230       -1.01543823750559
N           -7.77673955755893       -0.52461023782210       -0.17823630099024
H           -9.13086495241167        0.58879487634872        0.37177607905361
C           -8.81187916573898       -1.46709629885110       -0.54783753075182
H           -8.67491714882009       -1.83562327902388       -1.57239174680748
C           -8.86511487498254       -2.66954071941069        0.40246880079174
C          -10.15549586068190       -0.73199707429249       -0.45948679705448
H           -8.96495047065344       -2.32670422995159        1.43066437074503
H           -9.72069991913386       -3.28909225313371        0.14910167867707
H           -7.95393838119371       -3.25456150800498        0.30932088714083
O          -10.08124921582244        0.43954096447388        0.16137081534125
O          -11.18057909697825       -1.18758420949604       -0.88581165274974
