42
 energy: -62.486133513161 gnorm: 0.000479744930 xtb: 6.7.1 (edcfbbe)
N           -0.87417579704534       -0.11931421827288       -1.07110896976243
H           -0.18281479342986       -0.54862505889765       -1.67378729494631
H           -0.49564680877988       -0.10960736498087       -0.12790964927273
H           -2.01864786803677        1.42005067960442       -1.05949346890881
C           -2.12968563134089       -0.86840663729113       -1.09681954442263
H           -2.36835818668064       -1.06511364460749       -2.15038034076960
C           -2.10135720173068       -2.19220742687230       -0.33623969290541
C           -3.22213142593286        0.06448520855900       -0.58199171322076
H           -1.86441655217279       -2.01901186312779        0.71208844804066
H           -3.07580050900415       -2.66488602719967       -0.39822826150467
H           -1.35333546650778       -2.85762831597986       -0.76258014453802
O           -2.93463048659790        1.36910272682048       -0.71556768226603
N           -4.26399908408411       -0.44226629732736       -0.10020041811395
H           -5.45163540580713       -1.84865308150986        1.42859862655846
C           -5.43551584007666        0.26860935979314        0.37566507247955
H           -5.28063312079094        0.49336000944286        1.44132109858840
C           -5.80470655313369        1.55149625221030       -0.37518661240205
C           -6.51538124180763       -0.79173976802168        0.26410816488902
H           -4.95010218785717        2.22695528630170       -0.35969394347891
H           -6.00204084399833        1.27852472390934       -1.41298374302906
C           -7.02221102950078        2.27711908354368        0.20966723882600
O           -6.34132971494125       -1.87315834995235        1.05173384631173
H           -7.81084447438243        1.54438660756090        0.40328418423321
C           -6.67400052684301        2.98216563054806        1.51931086021653
C           -7.54435766530005        3.29506264469671       -0.80295168181643
H           -5.87705110572127        3.70585127010008        1.35958106387584
H           -7.54265703993667        3.51047877420558        1.90579633795971
H           -6.34868871807144        2.27466228745415        2.27829084052657
H           -7.85167981249772        2.80377520903220       -1.72283418898739
H           -8.40146382643265        3.82861382622047       -0.39860126187826
H           -6.77044077596258        4.02159871814842       -1.04187842999798
N           -7.42569815009393       -0.70114268347913       -0.59776047592669
H           -8.16489027622185        0.16351788644126       -1.98862126223696
C           -8.41204414007708       -1.73691612178373       -0.79631380949672
H           -7.95145607569878       -2.73102613922330       -0.85666358395227
C           -9.46439633181579       -1.74726973576293        0.31812051176676
C           -9.11930494980111       -1.42798265275211       -2.12530065421683
H           -9.90692714041693       -0.75821789952850        0.42141079252956
H          -10.24457297725299       -2.46064105774468        0.06808961983982
H           -9.00236418556983       -2.03056156767338        1.26040636514032
O           -8.82983143579740       -0.22560354304910       -2.60680297991124
O           -9.87496590402292       -2.19186257067172       -2.65863818005275
