42
 energy: -62.486133502305 gnorm: 0.000480903645 xtb: 6.7.1 (edcfbbe)
N           -0.75344574293270       -0.16078251048150        0.16167053785195
H            0.14644633981795       -0.35630078489123       -0.25972084507461
H           -0.79249736773490       -0.65866353235564        1.04713760344410
H           -1.90808111859204        1.36018664301466        0.50993432444746
C           -1.84606940086781       -0.60163792896591       -0.70429161746884
H           -1.63548830099224       -0.21442656609324       -1.71056366806405
C           -2.03086537286751       -2.11644389860259       -0.77795797854321
C           -3.10190648199444        0.10980183977294       -0.21929286425992
H           -2.33037194519907       -2.50765226881108        0.19197129167678
H           -2.79843341271358       -2.36535341087596       -1.50340765413629
H           -1.09901616328077       -2.59152659771280       -1.07893056210958
O           -2.87776965777219        1.27165304928381        0.40838817889242
N           -4.22958664524064       -0.41056253482411       -0.41554705801380
H           -5.15486486148272       -1.81624572213227       -1.03273914910363
C           -5.48087405410726        0.21975278574565       -0.04438239797191
H           -5.50752270156091        0.42603451071152        1.03098019684206
C           -5.65096114896351        1.54361263385016       -0.81925659467977
C           -6.56373534364346       -0.78882194337906       -0.39596214912119
H           -4.82309476305705        2.19185278094404       -0.52634126086506
H           -5.54151395539131        1.31839385549594       -1.88377008247094
C           -6.96400787466836        2.29826506893697       -0.60357220251524
O           -6.13154276199814       -1.91374444446568       -0.97439174964328
H           -7.78554199043027        1.68324281445767       -0.97761695425759
C           -7.20797405009438        2.60868282132154        0.87032496800597
C           -6.93073928261731        3.59480630718324       -1.41238841589672
H           -6.37515029187122        3.17640098462428        1.28108717907561
H           -8.11409722723249        3.19887556272216        0.98263238534634
H           -7.32423035316778        1.69432061125914        1.44566823517142
H           -6.75939798730962        3.38922531894779       -2.46652279233514
H           -7.87710280717400        4.12103092069473       -1.31718164373082
H           -6.13684318415426        4.24820312831909       -1.05578207654069
N           -7.77830460366925       -0.52764033147093       -0.17169303041161
H           -9.12231416883916        0.58802612714574        0.39441055323584
C           -8.81889669706929       -1.46865916722879       -0.52847365597707
H           -8.69722871497551       -1.83428092287765       -1.55598444529835
C           -8.85928191026118       -2.67376848449224        0.41907372902563
C          -10.16107844820424       -0.73340675765699       -0.41792042165334
H           -8.94417099288197       -2.33357968158494        1.44942455038534
H           -9.71899442852577       -3.29193086544084        0.17625540268397
H           -7.95001610033554       -3.25927114612283        0.31127227794609
O          -10.07624937492863        0.43950533491448        0.19884412396095
O          -11.19337591081045       -1.18919947487475       -0.82644926675271
