42
 energy: -62.486133507481 gnorm: 0.000479830937 xtb: 6.7.1 (edcfbbe)
N           -0.79306803425708       -0.28162540802750        0.33592455907594
H            0.13456658027617       -0.38018655096582       -0.05799884648186
H           -0.87374188751150       -0.94676936889095        1.10021790790201
H           -1.99284406779723        1.11190974337752        0.93609776563449
C           -1.82209969501433       -0.54807515382510       -0.66749462254758
H           -1.54631424670859        0.00954624327045       -1.57227710101190
C           -2.00059002163895       -2.02338922723470       -1.02327695844380
C           -3.11220523754499        0.07291741829969       -0.15223478863729
H           -2.32345922701800       -2.58621981654743       -0.14957452834010
H           -2.74972541707948       -2.12758506147854       -1.80113130278828
H           -1.06104965647189       -2.43893253892271       -1.38234367816997
O           -2.94985227303393        1.06158315031270        0.73670049372888
N           -4.22306966470301       -0.33458991941806       -0.58250531800692
H           -5.12140172975377       -1.87565894928924       -0.91807513283706
C           -5.47028500896036        0.25297371497689       -0.13112953479507
H           -5.43175996635345        0.48640959473114        0.94028528737502
C           -5.69122296910083        1.55791931560601       -0.92071386466399
C           -6.53996778091337       -0.79896000689792       -0.36933517517654
H           -4.84747044969010        2.20944312955968       -0.67932103352206
H           -5.63201231971954        1.31421771059913       -1.98447859868010
C           -6.99266647742063        2.31691376122554       -0.65553400590818
O           -6.08554888107566       -1.99164959093425       -0.77575161849458
H           -7.82327637353847        1.72350820802940       -1.04311212976831
C           -7.21492629655260        2.57264227893002        0.83213862774160
C           -6.95769719662508        3.64227621273566       -1.41601045070567
H           -6.36577580578798        3.10464165947269        1.25691591710126
H           -8.10636177659792        3.17790221585621        0.97797333719729
H           -7.34576620715736        1.63762067255657        1.36988515779295
H           -6.79341431614002        3.47421556865662       -2.47784229235504
H           -7.90061873155804        4.16953122999248       -1.29576595023203
H           -6.15832330057763        4.27822890770716       -1.04051452382738
N           -7.76365389725326       -0.52116602474258       -0.23496437883698
H           -9.15262400134352        0.62282848507691        0.18468175856676
C           -8.78151257902918       -1.51896621821042       -0.48799715177935
H           -8.61871321328282       -2.02710206863797       -1.44675436338393
C           -8.84476098734972       -2.57462082021648        0.62306210318236
C          -10.13429952081128       -0.79727630896718       -0.52733086444083
H           -8.97188054169993       -2.09004051502985        1.58947810582312
H           -9.68759046843896       -3.23597897697298        0.44289568081684
H           -7.92566342591797       -3.15462453811003        0.63385714725039
O          -10.09371226737850        0.43534444438281       -0.03456687158339
O          -11.13983192202568       -1.31118247307061       -0.93314376387339
