42
 energy: -62.486133515716 gnorm: 0.000479522321 xtb: 6.7.1 (edcfbbe)
N           -2.06930245481139       -0.99104576863457       -2.34366026316536
H           -1.40211584564694       -1.67402282669930       -2.67990037870771
H           -1.62761121503313       -0.07729495252366       -2.39610005647577
H           -3.89498800190790       -0.47304259689522       -2.59648216019026
C           -2.46709645113037       -1.27459245112622       -0.96701730154697
H           -2.67589701420793       -2.34996676628065       -0.90016777061079
C           -1.42799184621797       -0.89630944884663        0.08693116173807
C           -3.79199530885840       -0.55951961557210       -0.72371379612959
H           -1.18658319331426        0.16208223104293        0.01048790820167
H           -1.83219354113292       -1.08352080342567        1.07568291468105
H           -0.51821817154809       -1.47778184034931       -0.04831571636335
O           -4.45319736496807       -0.21139333503961       -1.83438002756990
N           -4.18267281469530       -0.39710744300444        0.46262512302696
H           -5.85108745536695       -1.81041557593332        1.95670237868962
C           -5.44905708586886        0.24427709067100        0.78930679094910
H           -5.41309288240229        0.38976403537979        1.87893653680666
C           -5.68919871435144        1.59256844266545        0.10831941816142
C           -6.51108129164906       -0.78502663206047        0.47910636102708
H           -4.80241838977191        2.21149906016666        0.26432866805185
H           -5.80460686748850        1.42293162678578       -0.96044963819839
C           -6.92833471359051        2.32181636865363        0.63926452931790
O           -6.56563284305716       -1.85148808069952        1.30868499724178
H           -7.74758064846545        1.59966115595251        0.70897563982498
C           -6.68258045456121        2.92796542166342        2.01943309091209
C           -7.33566269610820        3.41844014764997       -0.34301949503052
H           -5.87352509216850        3.65444880880713        1.97474513086157
H           -7.57730265969322        3.43532235555936        2.37310252897420
H           -6.41907476803384        2.16611395447605        2.74882911325743
H           -7.57221556405214        2.99341465482873       -1.31515819029755
H           -8.21174938695949        3.95025855767645        0.02090001364082
H           -6.52696236845118        4.13576474684784       -0.46718377126454
N           -7.22449323689817       -0.66707550657162       -0.54834256535472
H           -7.12107312161552       -0.13316618872600       -2.27519338779710
C           -8.17668312113225       -1.66691938773465       -0.96165756121156
H           -7.86158675940312       -2.68367461815431       -0.69053368103815
C           -9.55720482960574       -1.39622076017466       -0.35611553778699
C           -8.28229646374324       -1.57983044487014       -2.49329191660855
H           -9.85955364491785       -0.37266345867819       -0.56749648884595
H          -10.27982966473050       -2.07927972382413       -0.79361713745016
H           -9.52590540466879       -1.54212357663258        0.72100577082902
O           -7.58501453653557       -0.58290644937509       -3.02164869538749
O           -8.94152335270804       -2.34196613153254       -3.14498730203072
