42
 energy: -62.486133513789 gnorm: 0.000479201367 xtb: 6.7.1 (edcfbbe)
N           -1.50473149212340       -0.74143749297571        0.38569976127215
H           -0.82803528064813       -1.49367873841766        0.33778789124739
H           -1.38169038771420       -0.27760852143990        1.28201330882556
H           -2.16609913631467        0.66871980393980       -0.69538888393126
C           -2.86959738326449       -1.26213137398585        0.28624349529463
H           -2.88988153964375       -1.95152638248315       -0.56777873744672
C           -3.36025051054914       -1.99276082118866        1.53212006066818
C           -3.77357711011652       -0.08879337259160       -0.08874056334146
H           -3.38296644538929       -1.31373922253762        2.38134399468257
H           -4.36345791918323       -2.36748015585990        1.36661529066074
H           -2.70066174646216       -2.82736542736153        1.76214355548421
O           -3.11485110483376        0.91361688021492       -0.71277643039677
N           -4.99085742606913       -0.16609768225086        0.18622236293504
H           -7.96344283268825        1.31682929526530       -1.58894349426530
C           -6.06036710801073        0.75390498479203       -0.09166899593948
H           -6.34606477307079        1.15911510429325        0.89164974365530
C           -5.80132492490694        1.93114522975916       -1.05229034642964
C           -7.23077446338212       -0.11783865358164       -0.53568913802903
H           -4.74924073954674        2.20081683580969       -0.98841735956159
H           -5.97389323540306        1.60413188073148       -2.08286138719684
C           -6.63105921613067        3.18656410819620       -0.72927854300698
O           -8.17220867986866        0.40534304356843       -1.34779382586207
H           -7.64639175831553        2.90696281337260       -0.41702561446479
C           -5.99496908882298        3.96199236763423        0.42326014035115
C           -6.73356955241638        4.08076522153665       -1.96449448688277
H           -5.00367102246194        4.30950695676116        0.14072712928306
H           -6.60202896245123        4.82662557432593        0.68206819919485
H           -5.89821303072087        3.33724213401579        1.30826315346859
H           -7.23467267435441        3.56948652778535       -2.78494309492897
H           -7.29407294484289        4.98427550216198       -1.73575660774474
H           -5.74028641882025        4.37026438822787       -2.30009048031780
N           -7.28330038225093       -1.29646933774462       -0.10566671844933
H           -6.61242691223882       -2.47239608657701        1.00022061126120
C           -8.32545867563734       -2.23618736014981       -0.43089111386552
H           -9.32338519842765       -1.81881787729297       -0.24368902612106
C           -8.25486416300067       -2.71563688051015       -1.88415945360958
C           -8.11402847969826       -3.44542649942761        0.49999668335390
H           -7.24935922376633       -3.06663128667329       -2.10715113046897
H           -8.95696568134344       -3.53260984644869       -2.02466409141066
H           -8.50523206077875       -1.90176916495280       -2.55940724074629
O           -7.01322174849233       -3.35212023524866        1.23202529519335
O           -8.86503986467442       -4.38081239152257        0.54010186269668
