42
 energy: -62.486133518147 gnorm: 0.000479346943 xtb: 6.7.1 (edcfbbe)
N           -2.72913498762081       -2.05054981137714        1.74841470772282
H           -1.80770939244175       -2.43032045248848        1.92458037582788
H           -3.30126512917658       -2.79250803477845        1.35165919204244
H           -4.18847520930551       -1.17812131107152        2.52350982155619
C           -2.66849247610697       -0.91821164813422        0.82843132642311
H           -1.87571445923631       -0.24599589284933        1.17773750248131
C           -2.40543430307274       -1.29949015594289       -0.62799493423549
C           -3.99534810468715       -0.17280594255300        0.95241309464717
H           -3.15505770394801       -2.01229278397160       -0.96621526042277
H           -2.46735980786227       -0.41144938774706       -1.24743814679412
H           -1.41985112714452       -1.74822350890974       -0.73351729226443
O           -4.69037268916798       -0.47122735324733        2.06187818295024
N           -4.27816768645176        0.70614330260742        0.09916316256141
H           -7.72414475530630        2.20769732045243        0.66675904786258
C           -5.55846329056431        1.33925647525398       -0.08354104509370
H           -5.53796209496178        2.30400580542896        0.44693508434600
C           -5.67779527290488        1.59412086958574       -1.60200274399875
C           -6.76046843139132        0.55891409117231        0.40185922605890
H           -4.74189997442530        2.05651195148171       -1.91805918638287
H           -5.74273990572176        0.61727055369143       -2.08450232256310
C           -6.85679270245506        2.46320828541235       -2.05048541372119
O           -7.86918646755430        1.25649003343496        0.73977198593950
H           -7.78997541826666        2.04099541498848       -1.66106756597855
C           -6.71736198249322        3.90764888624417       -1.57040505920511
C           -6.94163600422134        2.44220589423232       -3.57664140884307
H           -5.80935572837331        4.34868683805037       -1.97582450458256
H           -7.56484524546924        4.50066357227136       -1.90744133844172
H           -6.66891000757437        3.98034446647873       -0.48555132050642
H           -7.08159925700893        1.42714696272762       -3.94015110351630
H           -7.77736497614397        3.04721935650922       -3.92051688527002
H           -6.02758734515154        2.83990458729407       -4.01183014957649
N           -6.68383370706258       -0.69106105369449        0.49785511098237
H           -5.64230592412017       -2.07572237929218        0.43626146355467
C           -7.73647127495673       -1.54978187050487        0.97419318157883
H           -8.15898362084713       -1.18583986148595        1.91893812938221
C           -8.86686657856215       -1.71377367925764       -0.04679088695392
C           -7.08675229801240       -2.92329308773151        1.21792294051651
H           -8.45943295842974       -2.02694658112764       -1.00632376359323
H           -9.56206487579457       -2.46964587410069        0.30771080168281
H           -9.39168859168190       -0.77047282518993       -0.17468427223850
O           -5.83292717585649       -2.98901940193954        0.77811022729240
O           -7.65439240415719       -3.84370719572462        1.73581530086780
