42
 energy: -62.486133512734 gnorm: 0.000479414649 xtb: 6.7.1 (edcfbbe)
N           -0.90468053586737       -0.46178484520515        0.05748901661908
H           -0.05778698116123       -0.71340330640340       -0.43733691377062
H           -0.92090039303713       -0.99334890421088        0.92369461757786
H           -1.89174294161865        1.11892133152078        0.57097263812165
C           -2.09055620898336       -0.77519326935435       -0.73994007195013
H           -1.90613031289183       -0.40833845686575       -1.75775351441856
C           -2.45171864988760       -2.25746635586774       -0.79970791183285
C           -3.23989977129027        0.05484766287691       -0.18825272538064
H           -2.58642957613161       -2.65184822975750        0.20594345046736
H           -3.38429298872861       -2.37367636159934       -1.34127718041623
H           -1.66735538220925       -2.82271009234479       -1.29886240198405
O           -2.86780059179890        1.14404783156668        0.51256901619021
N           -4.42593036831360       -0.29164446436305       -0.41616662897012
H           -6.07636048274701       -0.84559601354034        1.94137688822522
C           -5.53501140208846        0.52366396953816        0.04088449284511
H           -5.31454655007165        0.96450930014511        1.02624980541111
C           -5.79759365702373        1.64559863674980       -0.97130478572790
C           -6.71234458078082       -0.41480129342326        0.15438333824779
H           -4.89018202980809        2.24968294392882       -1.03829301891787
H           -5.97499997570119        1.16937768710851       -1.93529818702780
C           -6.98757632111763        2.54626381942626       -0.62907021083776
O           -6.83349188424099       -1.04913842249432        1.37940884091898
H           -7.88510386507077        1.92408413927422       -0.56452957538434
C           -6.79360317912650        3.27890783044242        0.69714589006755
C           -7.18485408855335        3.55668480331243       -1.75785107851080
H           -5.84369223094045        3.81031446221109        0.70361493058889
H           -7.59237334136845        4.00209599218764        0.84452476296840
H           -6.81190741825545        2.59086385670471        1.53898447196586
H           -7.33776812057472        3.04452034095235       -2.70420503475503
H           -8.05326489419596        4.18107721873499       -1.56242215376781
H           -6.31204111928286        4.20033921369039       -1.84937070962123
N           -7.46285663206760       -0.61222605990264       -0.82219946188049
H           -8.64785293387078       -0.98240953894665        1.44683210740484
C           -8.57565028307054       -1.52102585999378       -0.90523955289787
H           -8.87784144158046       -1.51163612903916       -1.95897793368312
C           -8.25253313365956       -2.96262477110185       -0.48872903763611
C           -9.79069410185128       -1.03786985997409       -0.09847810264525
H           -8.00621434137470       -3.02683884829810        0.56883901829588
H           -9.11070799146406       -3.59862830015770       -0.69154269872125
H           -7.40145778546452       -3.31908565749724       -1.06434937393683
O           -9.57488917594278       -0.81093949818215        1.19742102501786
O          -10.87355360124672       -0.89559231096980       -0.59024097056013
