42
 energy: -62.486133515739 gnorm: 0.000479237669 xtb: 6.7.1 (edcfbbe)
N           -2.24070568051067       -1.39876144842177        1.58429264621211
H           -1.72287905679281       -0.57304924149867        1.86513363022832
H           -1.60034548129343       -2.18314148554581        1.57262273405914
H           -4.04113777777343       -1.05815784594753        2.21551857314593
C           -2.85381469234108       -1.20565665741756        0.27221905599919
H           -2.20547476686338       -0.70269778120370       -0.45830440271451
C           -3.29938383588736       -2.55655837972192       -0.29119760929009
C           -4.10244523375400       -0.36734966016914        0.47600145736652
H           -3.95339384565336       -3.05923080791185        0.41850758443984
H           -3.83750502520197       -2.40230666959621       -1.22183818264612
H           -2.43649599882207       -3.19083033650727       -0.48337178548120
O           -4.65969862235534       -0.50422655593839        1.69221995003629
N           -4.48952576135818        0.38970822193110       -0.44838944977048
H           -7.73137127654705        1.10341749223042       -1.90282088441665
C           -5.75824852158286        1.08601260815253       -0.40767021164973
H           -5.87573041144440        1.58491045685195        0.56889568613837
C           -5.74346749705686        2.13651307944880       -1.52394908834091
C           -6.90459060085620        0.08766913725954       -0.49210991740816
H           -4.72437531024776        2.52330933650819       -1.57395993633055
H           -5.92672941669232        1.64862756226484       -2.48616166795057
C           -6.71269707157666        3.30949305630118       -1.30216040978605
O           -7.88939643161349        0.30012317260991       -1.39118387523176
H           -7.65573495339779        2.94151976998749       -0.87818345345245
C           -6.12274020933763        4.31426590766386       -0.31423580265291
C           -7.01537416661164        4.00292110037068       -2.63023836316416
H           -5.21424603247941        4.75349837425677       -0.72056918815005
H           -6.83219095575998        5.11436167132461       -0.11597008357525
H           -5.87834246084394        3.83520255531971        0.63062985262154
H           -7.49523341373572        3.32417878540075       -3.33348129978399
H           -7.67747400419304        4.85125474519339       -2.47407724807390
H           -6.09502718889456        4.36652814804413       -3.08181786292203
N           -6.90522347829948       -0.90408708926746        0.27977260311288
H           -6.26399693472320       -1.66167879769855        1.83173076025897
C           -7.93252724875996       -1.91543265647060        0.25681866917157
H           -8.93708419545367       -1.47220701300571        0.28485551833867
C           -7.82955422044750       -2.82040024805290       -0.97555119464174
C           -7.74745400116479       -2.77769525437590        1.51575541312034
H           -6.81817954779745       -3.21336866982829       -1.06195264813255
H           -8.52539548986453       -3.64766153002492       -0.86747293522176
H           -8.06990430175173       -2.25820600568463       -1.87407476026800
O           -6.69624543029781       -2.44843338786441        2.25099553685787
O           -8.48485071632964       -3.68440352723347        1.79370786750672
