42
 energy: -62.486133518982 gnorm: 0.000479148639 xtb: 6.7.1 (edcfbbe)
N           -2.75917443733193       -1.33037690604850        0.88748345653268
H           -1.99586804584279       -1.70689384324600        0.33824754263334
H           -3.29261450703412       -2.11468099971439        1.25544360656229
H           -2.99729751126257       -0.05606153430728        2.16833425387119
C           -3.62467311350067       -0.47554900826266        0.07285819779380
H           -2.96743349452719        0.27234143642889       -0.40199777364488
C           -4.32889081836008       -1.25229000467818       -1.03696205651998
C           -4.44550125555842        0.39294704549668        1.06661597890046
H           -4.85808968308217       -2.10613948811005       -0.62547343916033
H           -5.03160605199598       -0.63711295996193       -1.58746091619322
H           -3.57908408379053       -1.62312567924719       -1.73688147500158
O           -3.76692709575489        0.55702831446814        2.20697274981964
N           -5.45190352904896        1.13442261769859        0.93117722676756
H           -8.56570823075713        0.58181124937386       -1.19749745891942
C           -6.57722798387704        1.11526954349841        0.06205082024971
H           -7.34084947631542        1.72827597495348        0.57227218287845
C           -6.27862987994794        1.78303027887672       -1.30714976130671
C           -7.22097388125722       -0.25021781016112       -0.09851748502957
H           -5.24531903153151        1.56297938521288       -1.57973113364645
H           -6.92030891911629        1.36640521527379       -2.08971199325181
C           -6.45957180054183        3.30492030753792       -1.27541010782592
O           -8.34182310844325       -0.29306430964653       -0.85391803118745
H           -7.46484922143076        3.52954359595774       -0.89748104412037
C           -5.43475588159398        3.95451266735992       -0.34980565420714
C           -6.33845564501952        3.87477590483906       -2.68792606777066
H           -4.43291760556028        3.83951547872845       -0.75925227322065
H           -5.64083053396607        5.01720670285687       -0.24166971266598
H           -5.45442912479768        3.48850460823564        0.63159001420330
H           -7.08667608903061        3.44495624273040       -3.35114808314787
H           -6.47587401184780        4.95268608127382       -2.67203514415909
H           -5.35376377232909        3.66272242579087       -3.09874092419399
N           -6.78439373693161       -1.22647274666067        0.55860529284682
H           -5.60838497795271       -1.76855092617222        1.81272938429175
C           -7.35656835330340       -2.55061067090091        0.59067028407674
H           -8.26584758183490       -2.52933255266771        1.20872881208429
C           -7.69953908921814       -3.18007654935862       -0.75950034514795
C           -6.33928671592165       -3.42724051698422        1.34716797604467
H           -6.85261423039724       -3.10657368908561       -1.43830237518149
H           -7.92930369257979       -4.23035888251151       -0.60118859262614
H           -8.55405632933349       -2.68361301107890       -1.20870853973530
O           -5.41552986312525       -2.72128291867416        1.99536203068579
O           -6.36851299869352       -4.62543184567157        1.35097911344280
