42
 energy: -62.486133526761 gnorm: 0.000478151204 xtb: 6.7.1 (edcfbbe)
N           -2.06944627723142       -1.84123613489414        1.27363073640991
H           -1.11326196292763       -2.17480329539777        1.27999333461059
H           -2.67772532341748       -2.65543636556343        1.25825007385604
H           -3.24278378190470       -0.58771470253238        2.17973812201988
C           -2.32664528881584       -1.00971964298414        0.09952471370901
H           -1.51747311232119       -0.26957074846661        0.04329530130492
C           -2.40352220167851       -1.77253793091589       -1.22139618672918
C           -3.60988714112319       -0.23949250802807        0.37396927267006
H           -3.20501929571446       -2.50738539915112       -1.18288495247775
H           -2.61307009552530       -1.07808770447787       -2.02765097938705
H           -1.46310833883136       -2.28256387914584       -1.42095515108850
O           -3.91141144624785       -0.08700408239652        1.67153089014883
N           -4.28405740993189        0.21047819519985       -0.58872742165206
H           -6.03715837043844       -0.08637027306586       -2.44189668824590
C           -5.51778089694790        0.93936354313896       -0.34675861236681
H           -5.60757792092292        1.25008386894047        0.69951669802891
C           -5.57568875227946        2.15341596020137       -1.28088632124297
C           -6.60540312205997       -0.06987454950776       -0.63012148003578
H           -4.84950484416124        2.88567684745353       -0.92267953226231
H           -5.25169517398058        1.85000239197194       -2.28090473645373
C           -6.96081260285754        2.80530538984345       -1.36509176980687
O           -6.72611768557908       -0.49485600538471       -1.90122299984169
H           -7.68010753322062        2.06633860590596       -1.73646498766591
C           -7.43771171706312        3.29164056243575        0.00118959829313
C           -6.91377940483946        3.96965509733309       -2.35340290118148
H           -6.70514884332364        3.96428085976802        0.44220562892445
H           -8.37777311092240        3.82878479824329       -0.10106946974727
H           -7.59788682336997        2.45620138470625        0.67724857366695
H           -6.59026126721727        3.63353242422803       -3.33629824903300
H           -7.89701308883683        4.42236243340361       -2.45442594846299
H           -6.21982165918393        4.73203945765130       -2.00587245524703
N           -7.26684903895218       -0.54109218895150        0.33179164984294
H           -7.77631047025898       -0.46832616278552        2.06804246132578
C           -8.25580448967635       -1.58065366731542        0.15146043266380
H           -8.93228402936425       -1.35797382718270       -0.68301583239334
C           -7.60923999876996       -2.94964955136377       -0.08808647601897
C           -9.07548359339932       -1.65371634671047        1.44907010894824
H           -6.89690697731869       -3.16517494318217        0.70627901692424
H           -8.38103851551521       -3.71417741686245       -0.09120548478461
H           -7.09034798504671       -2.95372588860405       -1.04330122466853
O           -8.56826211439747       -0.92701581069051        2.43654183893307
O          -10.06500954775156       -2.32302860570269        1.55997648874303
