42
 energy: -62.486133516773 gnorm: 0.000478767597 xtb: 6.7.1 (edcfbbe)
N           -0.86884372734097       -0.40658409333748       -0.22842659447142
H           -0.06710240320054       -0.70769317639751       -0.76926746747927
H           -0.79951160033191       -0.84252079396654        0.68732252715444
H           -1.84504063969628        1.20906750706541        0.21335752933459
C           -2.11647368894376       -0.81273309371476       -0.87631223813544
H           -2.03645864078327       -0.53960381185705       -1.93635194788511
C           -2.44565375304233       -2.29889211448237       -0.76480307512449
C           -3.22994296810053        0.04585253562989       -0.29654537960237
H           -2.47511679664440       -2.59854750130419        0.28112303376573
H           -3.42318714146485       -2.47713428496887       -1.19938518006724
H           -1.69931181182686       -2.89682225561009       -1.28385105432484
O           -2.82234869017388        1.21025024926066        0.24844408283074
N           -4.41885520767640       -0.35184701648083       -0.36324613537077
H           -6.70521321833380       -0.23966780781334        2.13062135319887
C           -5.50815035761993        0.46278747503114        0.12322434012311
H           -5.27096925846075        0.85846581617332        1.12429621489548
C           -5.78014268099016        1.63558567756602       -0.83389736261111
C           -6.73025693852657       -0.42278905175176        0.18830835210643
H           -4.87320852809913        2.23855221285453       -0.90061199510234
H           -5.98503605944832        1.19634915967245       -1.81071182533164
C           -6.95810577803803        2.52081366332339       -0.41550156488962
O           -7.26109378732091       -0.63873200058478        1.45055934815936
H           -7.83416980723868        1.88525548568604       -0.24465973524596
C           -6.65891448569203        3.30625654709361        0.86021195213696
C           -7.28986532421133        3.48625079504995       -1.55151336073977
H           -5.76333223088354        3.91028775111374        0.72992786726402
H           -7.48888010706474        3.96826331620070        1.09637081306313
H           -6.50595532728777        2.64863753384482        1.71287252645273
H           -7.54703701101366        2.93733903811341       -2.45363294443795
H           -8.13434104374769        4.11586305607372       -1.28167910524568
H           -6.43704196806680        4.12686295370219       -1.76644432875263
N           -7.19667110818735       -0.90419834922944       -0.86406557962496
H           -9.00177634199540       -0.52059880241828        0.93769155161120
C           -8.32481106872101       -1.78700819944903       -0.99886232380286
H           -8.31171836524285       -2.11651457546733       -2.04423354678022
C           -8.28524373910572       -3.01887712618280       -0.08408647513038
C           -9.65946166990169       -1.05585898756114       -0.78765146222411
H           -8.36892311903206       -2.74158668874297        0.96441474245447
H           -9.10433585238938       -3.68654256828281       -0.33946893514127
H           -7.34225683701107       -3.54088881894864       -0.22955147770026
O           -9.79427826127956       -0.42109193122443        0.37742866958343
O          -10.53715391671368       -1.06803342229315       -1.60247867203327
