42
 energy: -62.486133515494 gnorm: 0.000480108925 xtb: 6.7.1 (edcfbbe)
N           -1.61312177690276       -2.18864531255675       -0.15813016433153
H           -1.63303935689568       -2.55181917761259        0.78919472246232
H           -0.68376737459605       -2.34204325504589       -0.53078823601322
H           -3.43613049617267       -2.41055822695412       -0.82607966914770
C           -1.95625417032930       -0.76814919485852       -0.18400479069704
H           -1.52996542251365       -0.18929669788973        0.64716376549523
C           -1.50282213819413       -0.15108093217012       -1.50736243127447
C           -3.47255803678915       -0.67259416328408       -0.11222127307932
H           -1.92717111659178       -0.70430162383080       -2.34247725578864
H           -1.83636966843045        0.88066295274082       -1.56047051682808
H           -0.41789846554642       -0.17637953922323       -1.58474466176735
O           -4.11787227148528       -1.74346041202867       -0.60735491821975
N           -3.99210030234176        0.38256615049116        0.33105385786340
H           -5.07442599955728       -1.36184803896251        1.72342541661868
C           -5.41522711485230        0.63555738226140        0.40344617336120
H           -5.55605088427299        1.16533771773720        1.35808823096338
C           -5.80149814445348        1.57786915454480       -0.74722037384718
C           -6.29666920000197       -0.59469901281659        0.46120218410349
H           -4.95251492417466        2.24011268035507       -0.92842289910717
H           -5.95328940078161        0.96907417099065       -1.63938614690159
C           -7.05066327549849        2.42211610426161       -0.46877195602827
O           -5.94772589251967       -1.54640870524861        1.35675884260595
H           -7.80627841038829        1.78132494145501       -0.00604425256457
C           -6.73674280031180        3.57725547112482        0.47996955295061
C           -7.60896884412867        2.96977160987135       -1.78111939948834
H           -6.01190921482595        4.25148925503846        0.02830055607077
H           -7.63970883604603        4.14258834603507        0.69850958192535
H           -6.32770979674962        3.21824240774767        1.42102687352233
H           -7.89007420317082        2.16335296793989       -2.45375582048225
H           -8.49038417249095        3.57807959452628       -1.59334281098863
H           -6.86564396761254        3.59000082170443       -2.27799486342027
N           -7.38347406961687       -0.62540010025600       -0.17105983412281
H           -8.35747291474547       -0.04314343036268       -1.57160828406563
C           -8.29531320046882       -1.74168812967291       -0.07890903964852
H           -7.76585280539165       -2.70266236292095       -0.08316901470410
C           -9.16274365221585       -1.66018418190556        1.18184204921639
C           -9.21382476299667       -1.67623195002936       -1.30880299793897
H           -9.66333679274690       -0.69490476018068        1.22709555066365
H           -9.91050618019019       -2.44759547479557        1.15359290145772
H           -8.54254342396957       -1.78068444037778        2.06648065372482
O           -9.07312695992502       -0.56030390305617       -2.01382655625970
O           -9.99344082450088       -2.54334449238569       -1.59114769222829
