42
 energy: -62.486133508855 gnorm: 0.000480646833 xtb: 6.7.1 (edcfbbe)
N           -1.43840191241649       -0.58262784965442        1.19923287507860
H           -0.56593601603942       -1.05900629470625        1.00373089438229
H           -1.75178163914355       -0.88895067820850        2.11645915769583
H           -2.22500768180712        1.19986970585326        1.07640498286044
C           -2.45118131705938       -0.92328796456288        0.19819923622890
H           -1.98965945636538       -0.77321429481085       -0.78745610291749
C           -2.99387152872900       -2.34650780181688        0.28854692458640
C           -3.55712174223348        0.11061706585233        0.32253720689972
H           -3.48008348501398       -2.50540640880682        1.24772814982761
H           -3.72792836140092       -2.50581160966208       -0.49283177750686
H           -2.18609151558256       -3.06678035134544        0.17509200095377
O           -3.15401075950011        1.30992361771503        0.79306963567728
N           -4.73317750763014       -0.17966266523690       -0.00729603622231
H           -7.94151797888124        1.72211175784821        0.75958803001991
C           -5.78103122834032        0.81020053767559        0.05631796825521
H           -5.63606569045842        1.49653201511516        0.90600921218265
C           -5.74894576069928        1.60928570389360       -1.26606097075800
C           -7.08919719051415        0.07670724841466        0.22595983145449
H           -4.74456256751988        2.02967742758004       -1.35608896149353
H           -5.88235291030252        0.88670843284890       -2.07396898720721
C           -6.76974838456145        2.74103621646168       -1.42128248661329
O           -8.17209133366951        0.79725080844546        0.60905031828514
H           -7.78306817198148        2.33967175629086       -1.31166247968620
C           -6.54613007923036        3.85670295174087       -0.40031930247601
C           -6.65756727862893        3.31628096152776       -2.83365451951044
H           -5.54952549824787        4.27604268532900       -0.52124833092682
H           -7.27220779503155        4.65357698563051       -0.54695113961519
H           -6.63582333802603        3.50619992453573        0.62649802198033
H           -6.84538322001421        2.54660284300288       -3.57834602838956
H           -7.38098510441439        4.11557919385129       -2.97706887081798
H           -5.66167316542745        3.72074384569377       -3.00093410954401
N           -7.11658297243326       -1.16671129862224        0.06642755260474
H           -6.12865577544126       -2.63876405922166        0.04695042365342
C           -8.28521015439802       -1.98434886546436        0.25195564046106
H           -8.87204204552365       -1.68327189644412        1.12984247765641
C           -9.19315853817930       -1.96393556002578       -0.98195706306009
C           -7.77135489985979       -3.42086204067662        0.46239460165826
H           -8.61551570331813       -2.21345855804376       -1.86955373856589
H           -9.98677231582726       -2.69494679960399       -0.85552075170277
H           -9.62765400400992       -0.97512641179099       -1.10720469489852
O           -6.46823833945534       -3.54712789606029        0.25840849008996
O           -8.48887688914266       -4.33353805841416        0.76793760606680
