42
 energy: -62.486133508518 gnorm: 0.000480129518 xtb: 6.7.1 (edcfbbe)
N           -1.34635357470518       -0.51188249701684       -1.78358048599194
H           -0.73356214680904       -1.18548313520338       -2.22671733319276
H           -0.77884682026219        0.05587635271358       -1.16018547656958
H           -2.75305753727357        0.70695839292412       -2.26485203542795
C           -2.39887250390255       -1.18334349043885       -1.02268733509720
H           -2.83068494821049       -1.95238772968386       -1.67659109909702
C           -1.93193771243731       -1.83452482609978        0.27621039115812
C           -3.50676731007178       -0.16016774397886       -0.78371891965400
H           -1.49282848398844       -1.08715299304119        0.93397640721790
H           -2.78232279065730       -2.27888124897843        0.78118157703588
H           -1.19185608670773       -2.60530813719322        0.07014694881729
O           -3.53249348797319        0.83367143245859       -1.68575882584769
N           -4.28556879604312       -0.34390096204358        0.18243449825668
H           -6.19359455833891       -0.89895412144102        2.44104463062183
C           -5.43319931809453        0.45359498929529        0.55303930167489
H           -5.23374911515725        0.79073836944986        1.58134463979371
C           -5.80088025029145        1.65953912670077       -0.31769619653873
C           -6.56117401035496       -0.56117062502068        0.58824733930023
H           -4.94809709124621        2.33733006219345       -0.36466446415464
H           -6.00167906775576        1.29825062257745       -1.32561803150815
C           -7.02827934898213        2.41665735251081        0.20364864709252
O           -6.83223852069545       -1.15985266493100        1.76630846467056
H           -7.81077216587177        1.68933013835312        0.44675668345834
C           -6.70418108666258        3.22748711662052        1.45708861108308
C           -7.55702440821193        3.34349819795115       -0.88920684086113
H           -5.91652222676736        3.94829049462787        1.24705893211468
H           -7.58440894943631        3.77208040813744        1.79157087302299
H           -6.37643022687981        2.58931498541848        2.27429437235339
H           -7.84932675516108        2.77272023443310       -1.76695186833831
H           -8.42409483926364        3.89693695518933       -0.53569205449333
H           -6.79026318950649        4.05700627417739       -1.18278066579982
N           -7.14076461345728       -0.86883486242617       -0.48494722758832
H           -7.13047781916656       -0.86437357682389       -2.27979491263732
C           -8.16665831945337       -1.88242900140085       -0.54864956854866
H           -7.89842364049465       -2.77267461776295        0.03524602664631
C           -9.51721351066512       -1.35447510272422       -0.05268953852051
C           -8.30877854539043       -2.28266396136307       -2.02573250110721
H           -9.77686540503331       -0.44083003553281       -0.58433221162819
H          -10.28277484347140       -2.10310772953497       -0.23628640392203
H           -9.46475141138953       -1.14405159532479        1.01276515001509
O           -7.61302250364394       -1.50983980553471       -2.85043127662797
O           -8.99539332840647       -3.19501684289020       -2.39386305313726
