42
 energy: -62.486133523613 gnorm: 0.000478973387 xtb: 6.7.1 (edcfbbe)
N           -1.34518104048526       -0.75418206649558       -1.59060064207195
H           -0.72569227052889       -1.48852105477641       -1.91112437655789
H           -0.79449622574018       -0.11126807640310       -1.02741398534724
H           -2.71365561770971        0.41479977306743       -2.27925398878997
C           -2.43719740223178       -1.30330907416684       -0.78828466325649
H           -2.85677204053690       -2.14976004922319       -1.34741853540079
C           -2.02915970810319       -1.77572954972123        0.60505056111446
C           -3.54013350452063       -0.24785022643669       -0.73249132229765
H           -1.58856748883851       -0.95371982737469        1.16563509163103
H           -2.90874383051698       -2.11957025026546        1.13755540985415
H           -1.30652133263037       -2.58660648036951        0.53682696034148
O           -3.50931296810048        0.62558857684630       -1.74972903444422
N           -4.36018488609778       -0.30253452880175        0.21551306939109
H           -6.95787608969313       -0.35615589592513        2.18482428136818
C           -5.51900647028886        0.53353040912991        0.41703414480010
H           -5.45688306291114        0.85182745150944        1.46889871059626
C           -5.70096063996880        1.76281546208825       -0.48323882402633
C           -6.71258550304084       -0.38711964260752        0.25472257986720
H           -4.80276664701337        2.37936359975173       -0.43098983463566
H           -5.81342509905471        1.40301266315055       -1.50496241139725
C           -6.92625022174872        2.60311369933053       -0.10315560587655
O           -7.40705747442502       -0.70561323062064        1.40575878919104
H           -7.78163309097623        1.93442709525642        0.04817424916584
C           -6.69374316392650        3.40439531682258        1.17690742775665
C           -7.26964933202371        3.55070299227411       -1.25046933651942
H           -5.86097215748839        4.09202836330700        1.04326351317858
H           -7.57979694258711        3.98507649429487        1.42392283472134
H           -6.47003067279357        2.75913862825819        2.02375138630824
H           -7.50636118614395        2.98742949924919       -2.14935944326768
H           -8.13005802803869        4.16477421295190       -0.99437340130664
H           -6.42849683801185        4.20664763569558       -1.46459875577174
N           -6.99098128606820       -0.82173096874647       -0.88260730057113
H           -9.06232523785362       -0.61787406923867        0.65113473517552
C           -8.05168494710785       -1.72724907177544       -1.23746178952105
H           -7.87095837535716       -1.98721430665610       -2.28695836062089
C           -8.10136968040903       -3.01406910747725       -0.40230194950569
C           -9.43049521596492       -1.05090813977462       -1.18579731949870
H           -8.35072781837443       -2.80832029576441        0.63631407670834
H           -8.84792934048372       -3.68594168748476       -0.81858662596557
H           -7.12875877192129       -3.49998567909471       -0.43393358138043
O           -9.76444536565643       -0.50449830866044       -0.01634879626455
O          -10.17334429630561       -1.03096606679137       -2.12489278491619
