42
 energy: -62.486133512467 gnorm: 0.000479745709 xtb: 6.7.1 (edcfbbe)
N           -2.14723372648513       -1.03092627650827       -2.35106579718529
H           -1.51898944531801       -1.74351278487139       -2.70039677991569
H           -1.66089240673199       -0.13986704483713       -2.39775447732883
H           -3.94026496462327       -0.43687673642638       -2.59325882514320
C           -2.55031534546260       -1.30815118459222       -0.97464521933502
H           -2.79934772721522       -2.37487946914997       -0.91253620647135
C           -1.49336237613502       -0.97521255611986        0.07684569384061
C           -3.84639614725112       -0.54541616714452       -0.72145507837455
H           -1.21745533018381        0.07535952142062        0.00912658876017
H           -1.89854637779207       -1.15918377543457        1.06582027363923
H           -0.60421102573543       -1.58522514340039       -0.06949992494281
O           -4.49086739743333       -0.15796295530574       -1.83052247981354
N           -4.23641562554356       -0.39006738055341        0.46542322863574
H           -6.03587909442745       -1.57914873438856        2.21335049616884
C           -5.47252900355200        0.29825913071523        0.80562294125714
H           -5.39176637830442        0.49120965264171        1.88559205999575
C           -5.73279313817037        1.61767482429726        0.07775867827672
C           -6.56154399265964       -0.72655462273319        0.57953547061193
H           -4.82482329560445        2.22262799602332        0.12952035062883
H           -5.94310191597371        1.39961380459172       -0.96706571643154
C           -6.91106148951533        2.39526339943444        0.67558420342035
O           -6.71017795356099       -1.67648312767670        1.52973587084242
H           -7.72231084987635        1.68753500178929        0.87595693866397
C           -6.52772189151160        3.09353209466375        1.97868486470056
C           -7.41160976455798        3.42424171762023       -0.33598958581727
H           -5.73685534595725        3.81905748939158        1.79866907169833
H           -7.38523833813025        3.61935149203283        2.39250749173145
H           -6.17713645836840        2.38400539570754        2.72420847208370
H           -7.74805083515375        2.93258109355689       -1.24516141139843
H           -8.24310267185422        3.99187379327594        0.07548587325462
H           -6.61581132157661        4.11992828311646       -0.59390370186160
N           -7.21100994551708       -0.70444306101660       -0.49601538518764
H           -6.72548160332780       -0.60990566638135       -2.28063744549136
C           -8.17982256431894       -1.70594483965730       -0.85733054727739
H           -8.03812609625223       -2.65273399574700       -0.31803456478213
C           -9.60021301826560       -1.19148211097998       -0.60642739145299
C           -8.01438060129849       -1.97870982666326       -2.36155801988401
H           -9.72831429790052       -0.21974761018529       -1.07824265535436
H          -10.31489421906125       -1.89228982464899       -1.02868351607492
H           -9.77754956635882       -1.09214403499305        0.46179803461101
O           -7.11778672897295       -1.20598125787420       -2.96151833293972
O           -8.64280095940441       -2.82129022767562       -2.94058826004532
