42
 energy: -62.486133504549 gnorm: 0.000481417201 xtb: 6.7.1 (edcfbbe)
N           -1.22432813057649       -1.55048680888775        0.02934706262343
H           -0.66305484533489       -0.92661317731100        0.59954582234818
H           -0.59386761916238       -2.12512550142434       -0.51726104647847
H           -2.81085017687563       -1.85780144506621        1.06365257035365
C           -2.12330423990430       -0.79329491057953       -0.84140348521105
H           -1.68262926297516        0.12776721394275       -1.24498878691257
C           -2.59247850968064       -1.67395915871606       -2.00034104270709
C           -3.34393714483871       -0.42238291784794       -0.01788209545656
H           -3.04434592278096       -2.58738464625204       -1.61919276469274
H           -3.32945221379971       -1.13646069266383       -2.58912990679824
H           -1.75277410588456       -1.93821072375108       -2.63964202007978
O           -3.56626038284228       -1.23265080689414        1.03875944997764
N           -4.03892701258752        0.56298017675192       -0.36129684383340
H           -5.35492381643909       -0.61703480692114        2.20618551876061
C           -5.28883475932780        0.93827912797058        0.27293440387899
H           -5.05777349678577        1.39211551386125        1.24926830719613
C           -5.94920702714593        1.98129242003912       -0.63449254619748
C           -6.18631756832662       -0.25884903340260        0.51359952317285
H           -5.23073031384512        2.78989200339781       -0.77593327854092
H           -6.11698807879964        1.51080346963222       -1.60279857183214
C           -7.27032749446129        2.54527586835586       -0.10479814793854
O           -6.15664691950035       -0.85456948784476        1.72183753897972
H           -7.94826025833615        1.71031228897181        0.09728670075662
C           -7.07581550909953        3.34085165315853        1.18467737596516
C           -7.90461798867680        3.43363890446239       -1.17345379027122
H           -6.33291798938466        4.12301628410528        1.04101190647841
H           -8.01178836030652        3.80884672229449        1.48152775287394
H           -6.75182829658690        2.70039362792429        2.00148639239046
H           -8.07540708965745        2.87136162747809       -2.08801999846671
H           -8.85915968196069        3.82406511124649       -0.82828230878624
H           -7.25325771005194        4.27420474770340       -1.40300076838007
N           -6.94704063297927       -0.64350199233324       -0.41423229390712
H           -7.28489476694693       -0.71036496765105       -2.18451021985798
C           -7.80499706309140       -1.79499100047523       -0.27427533804589
H           -7.33951096085857       -2.59238125417429        0.31918748931292
C           -9.14286300474466       -1.41431339902404        0.37008589349136
C           -8.08516904840776       -2.31730963869280       -1.69112903441417
H           -9.60661130941403       -0.60287024212012       -0.18765540795943
H           -9.80433602878173       -2.27601281238046        0.36073475506729
H           -8.98042707804420       -1.09345333339649        1.39622100015483
O           -7.71388761893852       -1.47133964263373       -2.64459828448474
O           -8.60544182376483       -3.37576029959209       -1.91009620906258
