42
 energy: -62.486133506614 gnorm: 0.000480310431 xtb: 6.7.1 (edcfbbe)
N           -1.51993525055341       -0.69908522303755       -2.02833949071716
H           -0.78058405910440       -1.33427851439016       -2.30181727831625
H           -1.09903952694349        0.21178933002687       -1.86805425827224
H           -3.26722486851752       -0.15904034081711       -2.58910352597999
C           -2.18914376695204       -1.15922042047524       -0.81328876701290
H           -2.38745671913084       -2.23221293040390       -0.93734655222180
C           -1.39474577906691       -0.93712694840481        0.47271476804354
C           -3.54908281175647       -0.46878890074601       -0.76127028199420
H           -1.15946815632380        0.11985841478176        0.58692492987183
H           -1.98671838078730       -1.24812206937108        1.32751515508690
H           -0.46724496555543       -1.50592957642447        0.44970286120856
O           -3.98157321058519       -0.00142593589998       -1.93666191170125
N           -4.15895435859079       -0.41468000954168        0.33964417938069
H           -5.27873508207840       -2.14009494249588        0.93996656737897
C           -5.48619047183874        0.16337533020152        0.48758806493667
H           -5.58753507717775        0.33546807354679        1.56988569425874
C           -5.73595217863327        1.47848561578036       -0.25620142202120
C           -6.48117516835461       -0.91874635920365        0.12338883532194
H           -4.82134889522339        2.07420963307807       -0.21143909841293
H           -5.93910606837572        1.25200605693317       -1.30228618688660
C           -6.89579221224637        2.29063712305844        0.33314473325451
O           -6.16565694151633       -2.15988316827996        0.54826828024029
H           -7.71339755629571        1.60352102748019        0.56946076632169
C           -6.47500755760019        3.01403917788672        1.61123407795510
C           -7.39160906923428        3.30666083732140       -0.69440149595221
H           -5.68492523256290        3.73128780324764        1.39686820998842
H           -7.31867016303944        3.55320327052443        2.03592591102465
H           -6.10878072423405        2.31703022593782        2.36118009721954
H           -7.75340450996893        2.81057933984739       -1.59148339149755
H           -8.20470197226088        3.89895516457624       -0.28136774706642
H           -6.58610665489401        3.98198568171109       -0.97597895356751
N           -7.51884753877708       -0.64528133477830       -0.53075382350937
H           -8.39735074272259        0.49785958346325       -1.61212961633330
C           -8.48731821618910       -1.64934116931991       -0.90429866298299
H           -8.00852076840392       -2.57206442089347       -1.25597758336988
C           -9.42378424732465       -1.99071021726497        0.25984669428637
C           -9.32743019100634       -1.05668483806480       -2.04696435460124
H           -9.87218423994259       -1.08114375416973        0.65493962202632
H          -10.21080782540995       -2.65037142852512       -0.09473525188017
H           -8.86576930015021       -2.48467947378247        1.05149756542855
O           -9.10734504516941        0.23636988790435       -2.24707931115784
O          -10.11756575685186       -1.70043544636163       -2.67978294687238
