42
 energy: -62.486133512095 gnorm: 0.000479557407 xtb: 6.7.1 (edcfbbe)
N           -1.00094402898692       -1.49601942168200        0.46333881622961
H           -0.88235634216202       -1.30036831904679        1.45140569030246
H           -0.08073269227317       -1.58207241821648        0.05003794909454
H           -2.60593796649466       -2.45728227505006        0.42613577868376
C           -1.77003841771573       -0.43627167263774       -0.18758235506480
H           -1.53946592629593        0.57073542715606        0.18404162337704
C           -1.53819331606531       -0.47399256141698       -1.69821875364805
C           -3.24636908645430       -0.71623337787304        0.07570638436631
H           -1.75460712817700       -1.46667014346037       -2.08732815245981
H           -2.19088035275356        0.24646155254359       -2.18187498810434
H           -0.50505340858720       -0.22470918748020       -1.93002379093398
O           -3.48804892977022       -2.02634822963490        0.36731766049564
N           -4.04994539413993        0.22809936448797       -0.02395545137466
H           -5.11391347586342       -2.09147236107996       -0.07637140927145
C           -5.46561437040064        0.43223649277603        0.09534637079609
H           -5.60990849696242        0.92062802005946        1.06682322510892
C           -5.73779896940753        1.47827600513759       -1.01981881374444
C           -6.46660657837227       -0.71441586593149        0.01390164226640
H           -4.92084482608523        2.19848987875277       -0.94438172928219
H           -5.63663499837216        0.96645914612360       -1.97977915802155
C           -7.06548857533750        2.23653606188650       -1.00378615795660
O           -6.07544831336967       -1.97806101835411       -0.17935924422508
H           -7.87209516819265        1.53693412466907       -1.22942451920783
C           -7.33728125576645        2.89659357378409        0.34451382268154
C           -7.03875294830867        3.29573563995507       -2.10613289272519
H           -6.52380966608305        3.56988043885679        0.60784294955971
H           -8.25801117288068        3.47290872859316        0.29878966596181
H           -7.44130738603878        2.15285620325555        1.12998438554034
H           -6.84454307832882        2.84034765557067       -3.07437855225741
H           -7.99530382307267        3.80947530900854       -2.15686823545696
H           -6.26239013885897        4.03294476615677       -1.91121370553390
N           -7.69358238656699       -0.40583582519065        0.06365122371157
H           -9.09739955504762        0.78955927833022        0.29938794154917
C           -8.71555369849094       -1.42474751883843       -0.05101443914629
H           -8.53258566928122       -2.09011536675685       -0.90373361861672
C           -8.82981570284421       -2.27432998248095        1.22220516515760
C          -10.05926923526953       -0.71416225385041       -0.24780719154435
H           -8.97585288749898       -1.62938924649114        2.08702019188074
H           -9.67928203676773       -2.94543907814466        1.13097548954247
H           -7.92338656784475       -2.85727244236513        1.36221521176359
O          -10.03116857321382        0.57364682842729        0.07759030469930
O          -11.04996870958699       -1.27562161621602       -0.62624343314251
