42
 energy: -62.486133508917 gnorm: 0.000480672707 xtb: 6.7.1 (edcfbbe)
N           -2.73889115271344       -1.68038484617476        1.85025933932605
H           -1.83344737817984       -2.11969918845577        1.96177127788522
H           -3.44803679808478       -2.39638756894356        1.99453022214352
H           -3.82941840822059       -0.25390472258766        2.42456805713848
C           -2.88397470246502       -1.11021670886037        0.51210441354660
H           -1.98656832652875       -0.51326151929877        0.30529422846609
C           -3.07604099733625       -2.14300098070608       -0.59749129125557
C           -4.06741393296196       -0.15652917113872        0.56878097482270
H           -3.92937328877535       -2.77692948293886       -0.36587773970087
H           -3.26893979639278       -1.63353328599992       -1.53523630879522
H           -2.18938958877108       -2.76591891202065       -0.69666182729367
O           -4.42704822347585        0.22106190421458        1.80873089970884
N           -4.64372219477611        0.20117353503371       -0.49124801542552
H           -7.94911853528827        1.12432715217348       -1.72463321943082
C           -5.82987295420169        1.02925548952421       -0.41726133962582
H           -5.87313564585150        1.57312873993350        0.53827139006307
C           -5.81663875413809        2.02233588742369       -1.58494123014642
C           -7.00997836789047        0.06564767697786       -0.43078896408413
H           -4.77997313322524        2.33134062262697       -1.73008969610728
H           -6.11108751205524        1.50665586464605       -2.50386178917182
C           -6.68024600412456        3.27264861015771       -1.35086313256456
O           -8.07942786010295        0.32108727217608       -1.20370950720186
H           -7.62105549031115        2.99141339403929       -0.85995533429926
C           -5.95935528847473        4.26074880496388       -0.43565509561059
C           -7.01015020222789        3.94329065548212       -2.68401437107347
H           -5.04698468249722        4.61639841742552       -0.90934499281643
H           -6.59468753043158        5.11834249751672       -0.22644203273135
H           -5.69424141473860        3.79522190678727        0.51035948828916
H           -7.57461950539644        3.27784106113966       -3.33508835233762
H           -7.60184237426661        4.84113598390236       -2.52201786862665
H           -6.09420264859541        4.22597701525043       -3.19796253327410
N           -6.90873136088406       -0.94042025200048        0.31637916964070
H           -5.85584248417990       -1.73516825443547        1.43099759070441
C           -7.84418179589294       -2.02559613423226        0.44534971543201
H           -8.76292637759591       -1.68837438698207        0.94383000908806
C           -8.21377732712719       -2.70383905479971       -0.87571598651124
C           -7.15886735291348       -3.05259052251202        1.37112769233883
H           -7.30888486633383       -2.95491435296134       -1.42591174391453
H           -8.76406595409037       -3.61592348017678       -0.66166368588711
H           -8.82536602713530       -2.04312991626096       -1.48351595886974
O           -5.97350285403616       -2.64710156416241        1.81438981119911
O           -7.64116217795001       -4.11423402054612        1.65214295648074
