42
 energy: -62.486133508151 gnorm: 0.000480438595 xtb: 6.7.1 (edcfbbe)
N           -1.01628390976210       -0.18983897087856       -1.41030458425525
H           -0.33454662522907       -0.73195465169314       -1.92765576634913
H           -0.57465635997428        0.11330638334397       -0.54629592503573
H           -2.30666704244945        1.21540145071995       -1.71782611393796
C           -2.20098625920327       -0.99057971120675       -1.10674089556813
H           -2.51610843905816       -1.46896980684316       -2.04359700842993
C           -1.99078988667008       -2.06495184426561       -0.04246866149705
C           -3.31525268453452       -0.01752238601397       -0.72802770699875
H           -1.70859173193125       -1.60721711871572        0.90362697847218
H           -2.91282104759269       -2.61797183465972        0.10206565094704
H           -1.20696612535663       -2.75393366179188       -0.35091563995467
O           -3.16897324114379        1.20810577439999       -1.25517340687266
N           -4.24305928550207       -0.43420506635880        0.00570562231122
H           -5.49073683847179       -1.83080048996477        1.50229903184461
C           -5.42648658433383        0.28018025369936        0.43948368673124
H           -5.29181308164940        0.47221751557125        1.51460890985404
C           -5.78213854824441        1.58441855454334       -0.27759047585165
C           -6.50066948190923       -0.78103420162274        0.28574899888677
H           -4.93391799511245        2.26536183508153       -0.21166155317386
H           -5.94545671790416        1.35227384730935       -1.33048963377585
C           -7.02392804255500        2.27707207103548        0.29693453213426
O           -6.36011438961296       -1.86133000380008        1.08072421424512
H           -7.81045108398057        1.53038348634421        0.43905203844804
C           -6.72421422965069        2.93591109101020        1.64234573290742
C           -7.52632900579262        3.32695017123754       -0.69260804960890
H           -5.93744679579114        3.67991895273197        1.53320867204857
H           -7.61292828038607        3.43302628034170        2.02476706460104
H           -6.40651185097576        2.20495146636096        2.38220367632275
H           -7.80062248249767        2.86645482198826       -1.63861239230514
H           -8.40054729910351        3.83755033576488       -0.29529891877694
H           -6.75286228432287        4.06839337747823       -0.88216594044778
N           -7.37170189597361       -0.68782023177488       -0.61551919946041
H           -8.04424147196487        0.18229634519112       -2.04039626128068
C           -8.35236470748347       -1.71920901615823       -0.85824974062161
H           -7.89324781441512       -2.71512378078021       -0.90043211637698
C           -9.45176351678817       -1.72766814323475        0.20993823851349
C           -9.00005936654259       -1.40601042553187       -2.21626242320998
H           -9.89705982380587       -0.73796662998893        0.29381713591874
H          -10.22139076166869       -2.44007631413579       -0.07351290060153
H           -9.03113259620828       -2.01139831851403        1.17131762137905
O           -8.68354798605139       -0.20539964381023       -2.68541230563520
O           -9.73680369172765       -2.16521758478518       -2.78169508067972
