42
 energy: -62.486132542763 gnorm: 0.000650557347 xtb: 6.7.1 (edcfbbe)
N           -1.38720133945255       -0.40041996114537       -1.87117896895200
H           -0.57591660983224       -0.94285760094908       -2.14118872686939
H           -1.05788198223111        0.51133306241066       -1.56586404052607
H           -3.15122870851943        0.06830191756555       -2.52558843578864
C           -2.11764353889876       -1.05243182085453       -0.78631717656234
H           -2.25333337468794       -2.10330902199081       -1.07674545746341
C           -1.43151146182669       -0.99052551717908        0.57656473819416
C           -3.50686874734177       -0.42693461039174       -0.74843923185433
H           -1.26077929953504        0.04530583751371        0.86207179816641
H           -2.06699729458754       -1.44848298846807        1.32685312736084
H           -0.47704709891955       -1.51207361437670        0.54503280281853
O           -3.90491826662653        0.11905542263427       -1.90316793536088
N           -4.17773975899927       -0.48282182890074        0.31793705543620
H           -5.18220203455321       -2.29768126512362        0.18975233420906
C           -5.53230598951746        0.03591733366739        0.40930075473858
H           -5.74712669324819        0.03979114971494        1.48836978001739
C           -5.73915974804162        1.45180821462423       -0.14444995291052
C           -6.48026640674483       -0.97172290366993       -0.21051787031119
H           -4.81472240458885        2.01497474557092        0.00252991436158
H           -5.92391276545410        1.38324429821003       -1.21625503918819
C           -6.89425131477795        2.19581022473442        0.53734400313129
O           -6.07507860147854       -2.25753036866307       -0.18860490220927
H           -7.71914966388831        1.49217713269785        0.68055819069104
C           -6.47068050377631        2.74034382123911        1.90035707908595
C           -7.37492632171612        3.34171150198302       -0.35101716115297
H           -5.68659189931054        3.48595735663022        1.78265628635863
H           -7.31506607986278        3.20955515204262        2.39978793245120
H           -6.09432986505648        1.94874261087440        2.54384989216087
H           -7.73230254688349        2.97071419900560       -1.30828420671379
H           -8.18810365979785        3.87960302720607        0.13045172490431
H           -6.56342763755534        4.04309579589588       -0.53502392116008
N           -7.59666593643668       -0.60193661367696       -0.65656803943959
H           -8.59088345638842        0.72608136794672       -1.39152846865490
C           -8.54059865322606       -1.53597046563894       -1.22594198306469
H           -8.04500002034089       -2.31591825495103       -1.81785715758146
C           -9.38745642944673       -2.20351669330307       -0.13709121014626
C           -9.47302658695533       -0.73379616851365       -2.14629266105643
H           -9.85215672627582       -1.44481741238727        0.48950199207348
H          -10.16296858096181       -2.80418892109887       -0.60380300022027
H           -8.75981774946870       -2.83951644537800        0.48229869056771
O           -9.32258874938170        0.58040711819016       -2.03733717453532
O          -10.27235677027011       -1.24950462453241       -2.87722025274644
