42
 energy: -62.486133520494 gnorm: 0.000479095404 xtb: 6.7.1 (edcfbbe)
N           -1.72242184658335       -1.05614853821443        1.25047622391494
H           -0.78229083246087       -1.40581511209934        1.11088021686939
H           -2.19913211773064       -1.70260409717060        1.87375818778174
H           -2.67929118888291        0.54125200141319        1.70859561232083
C           -2.44490954680004       -0.97356980267724       -0.01866315388296
H           -1.77976118065738       -0.48508189517384       -0.74247042000817
C           -2.90363297830680       -2.31797940952304       -0.57911371934395
C           -3.62647857235995       -0.03935671053809        0.19999704263794
H           -3.53651807162963       -2.82621960214580        0.14571325564405
H           -3.48450456417455       -2.15223934533192       -1.47979403811641
H           -2.04757318172449       -2.94930118694424       -0.80908367974949
O           -3.50777531664812        0.78948542719177        1.25014800311406
N           -4.60568800027677       -0.08221771458013       -0.58749479097444
H           -7.07516259947485        0.50056743132530       -2.45047199360615
C           -5.74590700980544        0.79574379208692       -0.39024362943780
H           -5.79070054847097        1.13427783688477        0.65299952628231
C           -5.63807832318794        2.01019479169698       -1.31745540407706
C           -6.94919985454560       -0.09163274712302       -0.63656948529172
H           -4.72076307462523        2.53911054510990       -1.04861620229242
H           -5.50562177814200        1.66864101752653       -2.35018243361948
C           -6.82116123128472        2.98359658378604       -1.22234963312066
O           -7.52873387014761       -0.10431951225334       -1.84988030754676
H           -7.76149192377385        2.43437007926393       -1.34696036261085
C           -6.85852890536453        3.68088352456554        0.13567378721794
C           -6.71788691443667        4.02124032787019       -2.33991968689362
H           -5.91958788993565        4.19702917389440        0.32371385477134
H           -7.66316042590741        4.41214123659881        0.15904685468487
H           -7.02808552682553        2.96809303643901        0.93815839949264
H           -6.72285021158806        3.54644106979498       -3.31927227333426
H           -7.55516417878781        4.71325811988145       -2.29401070852692
H           -5.79680729479175        4.59151641611082       -2.24076409392121
N           -7.29980589745521       -0.86132268867989        0.29718988451167
H           -7.20430441478439       -1.33473524104169        2.02239225031041
C           -8.36525364294645       -1.82667248165463        0.14951373258261
H           -9.26977615959191       -1.37061809580124       -0.27248059306762
C           -7.95248418251345       -3.01141626754494       -0.73101223799248
C           -8.68902322064530       -2.35472123736083        1.55574061367538
H           -7.02389244640438       -3.44067204036124       -0.36030887823478
H           -8.73264438771579       -3.76686043405871       -0.70247262796247
H           -7.80412406819939       -2.67976612144490       -1.75498762455130
O           -7.83599306496300       -1.93807474339125        2.48397597755065
O           -9.61002081304127       -3.08852319818541        1.78553967994320
