42
 energy: -62.486133503557 gnorm: 0.000480430215 xtb: 6.7.1 (edcfbbe)
N           -2.01641212606902       -1.59166774406883       -0.84504858656133
H           -1.43667558765135       -2.40817099762673       -0.69506413221946
H           -1.39882915503294       -0.78789741150206       -0.92012030754960
H           -3.48253970146954       -1.05083281694113       -1.94507483169141
C           -2.94875636686659       -1.39877792877153        0.26610736974880
H           -3.38467809443778       -2.37733805921850        0.50322571059014
C           -2.32795141324975       -0.80646045791722        1.52821738471338
C           -4.09248774483304       -0.53589631918971       -0.24604107966760
H           -1.85296277676445        0.14605758825405        1.30070662089250
H           -3.10897091346217       -0.63382973355275        2.26045396245526
H           -1.58364972568463       -1.48358231958516        1.94217775512728
O           -4.22362754426403       -0.51861287144628       -1.58798245502459
N           -4.84865369537517        0.04036291581322        0.57561651057238
H           -6.81632337719287        0.67146986745012       -2.20564397453686
C           -5.97834224204114        0.84157221458966        0.13315340691672
H           -6.41168292710258        1.22896893793358        1.06365112065403
C           -5.57647051598481        2.01904956430077       -0.76088081420235
C           -7.00152118593425       -0.10904500163942       -0.46399539489795
H           -4.72610462174278        2.51018977553440       -0.28143978022298
H           -5.21647903091222        1.64932678014843       -1.72590197428158
C           -6.69879050113528        3.04879661166561       -0.96430052323252
O           -7.32909376514569       -0.01850540209989       -1.76566299225007
H           -7.64849265303941        2.52823161322247       -1.13469358945693
C           -6.86270363062161        3.93467551729867        0.26880771053432
C           -6.39391526806609        3.91420896167801       -2.18714538532887
H           -5.94844887900893        4.49344595766682        0.45786544654689
H           -7.67257761304030        4.64460577013171        0.11767900445792
H           -7.09232766840698        3.34206609353770        1.15038873051363
H           -6.33381890372470        3.31337381282294       -3.09296528525589
H           -7.17200377756753        4.66055798348431       -2.32760809712398
H           -5.44530361351602        4.43067774641172       -2.05577318070456
N           -7.45802732328730       -1.00809823135845        0.29157931673410
H           -7.67873471596549       -1.68449410013011        1.94994488519335
C           -8.36428959731984       -2.02801329977753       -0.18185236772400
H           -9.18627499683694       -1.60397193939494       -0.77234904528168
C           -7.64148010709624       -3.08404381624794       -1.02639106462618
C           -8.94821627209377       -2.71984732613023        1.05959141514437
H           -6.79571785753243       -3.48418522039855       -0.47014595570962
H           -8.33062602212540       -3.89124445979427       -1.25803225642369
H           -7.28005885315940       -2.63837584819982       -1.94959841459824
O           -8.35147121536001       -2.36643053830512        2.19027283035126
O           -9.84070275669117       -3.52030736006325        1.00321371233145
