42
 energy: -62.486133520756 gnorm: 0.000478796539 xtb: 6.7.1 (edcfbbe)
N           -1.45785245934915       -0.85998431529808       -1.59705510982339
H           -0.83341159688037       -1.61253594170259       -1.86014840377892
H           -0.89571922800601       -0.13058469095102       -1.16679129343023
H           -2.87655451753050        0.19787211696073       -2.32202965298396
C           -2.47234607745086       -1.32617522324779       -0.65366635354085
H           -2.87904439476077       -2.26515422061083       -1.05065777218216
C           -1.95698416956005       -1.56077678949278        0.76439663251719
C           -3.61967949323611       -0.31610943330461       -0.68064052521642
H           -1.53657590731687       -0.64102216624760        1.16623227177352
H           -2.77935629391922       -1.86769829415457        1.40086274975210
H           -1.18968418271433       -2.33270496857841        0.76808437998834
O           -3.65746480188266        0.44113869394480       -1.78344494407600
N           -4.41607670943012       -0.30507779407153        0.29091931322875
H           -6.57700446876066       -0.93980394326786        2.06793544653055
C           -5.59144951516977        0.53018579608286        0.42764638597714
H           -5.59264583794756        0.84067440934995        1.48374194291853
C           -5.71768640940488        1.76448303314853       -0.46747195842835
C           -6.74949134568019       -0.42199022238938        0.20721209654927
H           -4.78840770434677        2.33407787579103       -0.42034005256043
H           -5.86183486913745        1.41863422235768       -1.48939051814075
C           -6.89363190294694        2.66173861027082       -0.06314835080149
O           -7.17588619534272       -1.10358416566877        1.32921842650363
H           -7.76651473387219        2.02775609225036        0.12877012232729
C           -6.58423224049570        3.47208329048028        1.19459672290489
C           -7.23621818590892        3.60449305733712       -1.21441533065227
H           -5.73094814599833        4.12494038432958        1.02122751931313
H           -7.43764456283283        4.09011087945899        1.46436423777445
H           -6.35572869928801        2.82943057883267        2.04182544994397
H           -7.52445919853216        3.03658720034729       -2.09494248085103
H           -8.06208476055979        4.25743076892331       -0.94140253875005
H           -6.37684163015082        4.22239091963914       -1.46637665563751
N           -7.19362050366125       -0.60182460406208       -0.94605281519820
H           -8.94635237267543       -1.04316455775622        0.89910884135623
C           -8.22077584414564       -1.52401127701595       -1.35369112292251
H           -8.22069602069696       -1.49026510436984       -2.44938106167377
C           -7.99626689103641       -2.97176248790814       -0.89535611656985
C           -9.61981685106364       -1.07718951891435       -0.90251896928142
H           -8.06103850257344       -3.06326293931507        0.18664374956723
H           -8.74557483583714       -3.61482245243580       -1.35031558522715
H           -7.00822568885270       -3.29938491299570       -1.21115981852777
O           -9.77116698968253       -0.87619975339574        0.40647718015713
O          -10.52919653483804       -0.94096394720041       -1.66993085077667
