42
 energy: -62.486133517522 gnorm: 0.000479573671 xtb: 6.7.1 (edcfbbe)
N           -2.60394900632687       -1.49241819756513        1.85949484343105
H           -1.70870145295153       -1.96216495411998        1.92546308584316
H           -3.32092280373018       -2.17278463538402        2.10158089886260
H           -3.51063782501789        0.14832154371014        2.36991400200475
C           -2.83645593180186       -1.00876500854814        0.49846182089041
H           -1.96061365450725       -0.40940892395066        0.21334237133000
C           -3.06088253343142       -2.10482605941298       -0.54020635791271
C           -4.02030366618654       -0.05878734366783        0.57781398383183
H           -3.86003842056821       -2.76712751569966       -0.21622006876259
H           -3.34909417281637       -1.65400092503021       -1.48336565585871
H           -2.15253663333985       -2.68790634351882       -0.67805389873805
O           -4.16323775075325        0.55669947929083        1.76686806140918
N           -4.78387434494374        0.08024477588167       -0.41051199926093
H           -8.19700620221035        1.33129627697896       -1.30248596839529
C           -5.93979415293914        0.94457748393759       -0.34164537236071
H           -5.97360705159466        1.49929626507661        0.60898778739900
C           -5.90739272353680        1.93092188251858       -1.52148060478779
C           -7.14876646493615        0.02539346261361       -0.36536580996546
H           -4.85992412769581        2.09371005104858       -1.78146389651246
H           -6.37241661854259        1.46592386182615       -2.39533314291780
C           -6.55806627456068        3.28931048174231       -1.21526240182493
O           -8.29977770355682        0.45036797848647       -0.91960456142147
H           -7.48026403874572        3.14069536223044       -0.63733270110728
C           -5.61940048978750        4.15574917104625       -0.37771886007589
C           -6.91463034392373        4.00855591603879       -2.51553024124395
H           -4.72145172514336        4.39209687568471       -0.94438976275176
H           -6.10627580090295        5.08793377692503       -0.10059685363573
H           -5.32222786011556        3.64166595560228        0.53308665810727
H           -7.62742863519896        3.43323632742005       -3.10376345062662
H           -7.35443601510082        4.98037587098774       -2.30405086226290
H           -6.02139712805453        4.16125029087134       -3.11692535390057
N           -7.00822307651014       -1.09571649791758        0.18449262726773
H           -5.88045824293187       -2.11374867786263        0.97703236947246
C           -7.99955543727548       -2.13207757563514        0.29414561705706
H           -8.88166061221118       -1.78541643332958        0.84766274151576
C           -8.44755763928538       -2.69031185819980       -1.05946337747064
C           -7.32793066675274       -3.25963704852444        1.10458337249649
H           -7.57647084071349       -2.97281445985211       -1.64740069918722
H           -9.06712315339082       -3.56754135595867       -0.89554097807365
H           -9.01514160704485       -1.94051540031782       -1.60395240524086
O           -6.04908134398882       -3.01463405503286        1.36975835728706
O           -7.89747712803125       -4.25904580673521        1.44391215418328
