42
 energy: -62.486133539336 gnorm: 0.000477588376 xtb: 6.7.1 (edcfbbe)
N           -1.19010842599281       -0.59190376773620        0.61553491130754
H           -0.31965049384467       -1.02944942757879        0.33846839873499
H           -1.40340484079101       -0.90768159135213        1.55829816703294
H           -2.05821749854833        1.13038771684054        0.64096455375236
C           -2.27628562883950       -0.97237919046108       -0.28709737409171
H           -1.90879700892890       -0.83253127043414       -1.31222717658232
C           -2.77463850173069       -2.40527390846451       -0.12058368436214
C           -3.39943670427444        0.03508345292978       -0.08332979226025
H           -3.11475082964208       -2.56537781272373        0.89992814943324
H           -3.61329671606228       -2.57476168398653       -0.78642391632631
H           -1.98079682402468       -3.11421709500014       -0.34741971375793
O           -3.00835932009810        1.21827971276701        0.42212815706343
N           -4.57627628159935       -0.28547873887356       -0.38232128634036
H           -6.53001776751245        0.17095973947302       -2.48422193094602
C           -5.69357686182249        0.62949407776328       -0.24126965167562
H           -5.80737955999468        0.88956063381975        0.81766998714790
C           -5.53746796958465        1.91684115510995       -1.06443243984715
C           -6.89879754044614       -0.19282365538625       -0.64697822964907
H           -4.71523356914087        2.48909274198818       -0.63265658631091
H           -5.24098961822512        1.66143456857463       -2.08863874335556
C           -6.79778514564465        2.79099891891024       -1.09298293932806
O           -7.17931356886473       -0.31176030486699       -1.95802790854595
H           -7.63592650300163        2.21075505597543       -1.49544026163999
C           -7.17872877759073        3.26909682266755        0.30607072407778
C           -6.56040609378845        3.98926049714303       -2.01150064858666
H           -6.33847988257449        3.77524321751238        0.77646453744152
H           -8.01091458347237        3.96679616270574        0.24818047798227
H           -7.48198017591181        2.43595141397610        0.93467926696278
H           -6.30697673840654        3.66542246903336       -3.01908530409170
H           -7.45341034291571        4.60686700371008       -2.06774509946135
H           -5.74422264786046        4.60022022016638       -1.63206345282805
N           -7.52778870977019       -0.81615689831918        0.24819335709193
H           -7.91176203287902       -1.08480335410778        1.98752430752801
C           -8.63100094735499       -1.69850433721664       -0.06141672907490
H           -9.32706797715199       -1.24547203218005       -0.77820980166095
C           -8.14625546657913       -3.03997840436665       -0.62268652384336
C           -9.37663034602941       -1.96694288464261        1.25434425842263
H           -7.41816401778252       -3.48198643329693        0.05414234436240
H           -8.99354349228063       -3.71194791002231       -0.72621896240021
H           -7.68107302537213       -2.88910199425594       -1.59306334773831
O           -8.72558279348581       -1.52974416447558        2.32562992543754
O          -10.43169602472885       -2.53549455082854        1.30675506184197
