42
 energy: -62.486133507452 gnorm: 0.000479718355 xtb: 6.7.1 (edcfbbe)
N           -0.92618102963570       -0.90471261693251        0.53167739186382
H           -0.16134756319656       -0.24666333359549        0.59439270884288
H           -0.53728224245048       -1.83400116673075        0.42603827055345
H           -2.36528064903777       -0.73313965044626        1.65156453905755
C           -1.84124750188036       -0.58593847764848       -0.56918812977789
H           -1.51191801838104        0.30187085028982       -1.11839897368497
C           -1.99947544207183       -1.74353563988629       -1.55294545836617
C           -3.19848135908226       -0.26143054723200        0.04637109571174
H           -2.32143173563334       -2.64210615596666       -1.03000842850849
H           -2.75047675912390       -1.48365663133354       -2.29204860957086
H           -1.05698786471674       -1.94618190490123       -2.05760644281609
O           -3.28247968960461       -0.49200609034253        1.37804289640183
N           -4.13030863829537        0.14767650339575       -0.68644529932522
H           -4.90915256392878       -1.63233647729710        0.80848079517148
C           -5.42628079560841        0.51970868562193       -0.15683240146881
H           -5.32290664964287        0.87798374244942        0.88214753826146
C           -6.00793158177123        1.62608839950892       -1.04073746167409
C           -6.32315179906290       -0.69992871316209       -0.08655177219203
H           -5.18673226077219        2.28161197046910       -1.33530621165544
H           -6.40194677053629        1.16136381420479       -1.94400925487136
C           -7.10095248514158        2.45256678459729       -0.35298918335624
O           -5.79599044959381       -1.81114921258262        0.46459841759731
H           -7.75984191391309        1.77011200091661        0.19144918582292
C           -6.49921821086043        3.44874076069532        0.63696104354580
C           -7.92543692442819        3.20020937473602       -1.39918824345131
H           -5.86616675136284        4.16406078949201        0.11551995080405
H           -7.28693472710785        3.99820211144395        1.14723780238426
H           -5.89750705711161        2.94618425836035        1.39042058271509
H           -8.41131230553047        2.50799017950037       -2.08204576807732
H           -8.69467253250747        3.79988085103874       -0.91845512570773
H           -7.28686768885516        3.86399136896371       -1.97843710075541
N           -7.52211645861397       -0.62007717540005       -0.45983124389992
H           -8.76503878427608        0.22131910469093       -1.46001799924701
C           -8.43607128094610       -1.73518365487071       -0.37034259941044
H           -7.96583141715220       -2.67837924356252       -0.67542921565184
C           -8.99289879842431       -1.89554478357276        1.04851485912353
C           -9.60603498095246       -1.43534816942232       -1.32093614886453
H           -9.42419374713093       -0.95529933676359        1.38656101110482
H           -9.76438051126767       -2.66027689488693        1.04608958852908
H           -8.19670764718809       -2.18628275169150        1.72926438662486
O           -9.58233845012079       -0.20424418595764       -1.81528646272389
O          -10.46467722587478       -2.23416462936898       -1.57335950548977
