42
 energy: -62.486133516138 gnorm: 0.000478822443 xtb: 6.7.1 (edcfbbe)
N           -2.16524936787621       -1.51120119696825        1.79349200320930
H           -1.75859345171764       -0.77781056581323        2.36416148256321
H           -1.46303474980154       -2.22728396498517        1.65196910802724
H           -4.02513519623474       -1.49839859950020        2.23963913779007
C           -2.63470581686162       -0.98009182568215        0.51524923567644
H           -1.97320526692325       -0.22137575177722        0.07620334958446
C           -2.82065852019643       -2.12627797586895       -0.48066295191917
C           -3.99890591498646       -0.35262704528519        0.75821477315233
H           -3.45120596386358       -2.90029273870783       -0.04892569085594
H           -3.28982619901688       -1.74962779337557       -1.38413011721858
H           -1.85757717330758       -2.56202728125516       -0.73912748917218
O           -4.65478668170974       -0.87839004479231        1.80887718236738
N           -4.36732432898749        0.58963141582426        0.01703017189710
H           -7.98382637144220        1.82876014469475        0.33989159883684
C           -5.67428294148774        1.19665472417045       -0.00989355874416
H           -5.72249493938482        1.94975475037073        0.79206712749093
C           -5.72904369570453        1.89485138639406       -1.39095529823484
C           -6.85637156737017        0.26980944824442        0.16718083588736
H           -4.76356854011542        2.38997556467578       -1.50749287512676
H           -5.77896970754872        1.10478078019200       -2.14298180362631
C           -6.84173748038778        2.91383891989137       -1.65956302829175
O           -8.06576553484507        0.86825330838280        0.31045751546588
H           -7.81944670652168        2.42125068956150       -1.61343990290207
C           -6.80947042561074        4.08220867402363       -0.67402818845991
C           -6.67823940839357        3.44939265952885       -3.08305861329602
H           -5.84677026498235        4.58612730342717       -0.72673842267684
H           -7.58569190169189        4.80353680021126       -0.92104765464351
H           -6.96527700178523        3.76668058751901        0.35656599143389
H           -6.71883639344295        2.63786483226088       -3.80540388066446
H           -7.47106579659719        4.15609596082211       -3.31726533828805
H           -5.72243814881812        3.95708548468700       -3.19072179670187
N           -6.72143568672874       -0.97732712756985        0.23637734596122
H           -5.68518017169385       -2.34914948518647        0.83647339672161
C           -7.85604558972510       -1.85938865936074        0.38525095626203
H           -8.51665269800016       -1.52382388181845        1.19717850519902
C           -8.67716388565074       -1.96754845044515       -0.90243555869906
C           -7.31604812376173       -3.24792540178868        0.76029063770993
H           -8.02222658954381       -2.20837998972660       -1.73739580183044
H           -9.41209621491666       -2.75924947703162       -0.78760675802100
H           -9.18341297400845       -1.02761423854678       -1.10561932501316
O           -6.00434246404002       -3.27672624465668        0.95709131250754
O           -8.01808140027241       -4.21604152669484        0.86376723889956
