42
 energy: -62.486133512445 gnorm: 0.000479425924 xtb: 6.7.1 (edcfbbe)
N           -2.19044902540809       -1.04229782420788       -1.64100926635479
H           -2.20664370174262       -0.26705103117171       -2.29585656968307
H           -2.17414474962258       -1.90150046421488       -2.17879264992333
H           -1.33978755775172       -0.30236379326765       -0.08373291921325
C           -3.36981065080507       -1.00042040171490       -0.77236272348938
H           -4.30704921234229       -0.82308063354396       -1.31442103349169
C           -3.45476838901267       -2.31421304064873        0.00768955031008
C           -3.12770807186608        0.12283498754951        0.23959361298504
H           -2.53255511518151       -2.47771007532208        0.56221885952745
H           -4.28221086293715       -2.28391149142731        0.71093323307673
H           -3.60187215186210       -3.15112470031589       -0.67278958637787
O           -1.83298839427756        0.26188676689939        0.54805306551734
N           -3.93674115151202        0.88346820041344        0.82927502145822
H           -6.34716256741902       -0.38337050176258        2.36288430280492
C           -5.35421157400911        1.03618170422730        0.68751485468783
H           -5.67457805673728        1.45352885024282        1.65511004517061
C           -5.62830772657532        2.08562365514608       -0.40719735015355
C           -6.20199406643684       -0.19586104164069        0.43167398584609
H           -4.89270353985989        2.88343144710859       -0.29595579848989
H           -5.47202391857780        1.59872371595006       -1.36988702824823
C           -7.04296492110137        2.67336475050582       -0.35596332355661
O           -6.70164233654298       -0.80352736319089        1.56844473664545
H           -7.76101769870610        1.85595359857578       -0.22757957261183
C           -7.20143966955258        3.65972968286211        0.79908638156369
C           -7.35292448927381        3.37071948663070       -1.67884981604702
H           -6.51047885081406        4.49142823989868        0.67995292049242
H           -8.21431485957671        4.05490386845245        0.81954541367953
H           -7.00529597210288        3.18955882109704        1.75957228632074
H           -7.31372818065700        2.66154715549069       -2.50169944487213
H           -8.34777032086519        3.80850466891827       -1.65324018966222
H           -6.63204673291213        4.16346669629500       -1.86732422815999
N           -6.43299258968094       -0.59228477500744       -0.73241809486371
H           -8.41630780850002       -1.00689613827363        0.88708801202570
C           -7.29348921720178       -1.67195252226619       -1.14265642625636
H           -7.11675520790052       -1.79235210261439       -2.21796287072349
C           -7.08305498216649       -3.02204106096080       -0.44505266159418
C           -8.77039821417324       -1.26998412746237       -0.98652330113831
H           -7.21815363690285       -2.94462822728448        0.63126048699278
H           -7.79804561451038       -3.74044199403605       -0.83943505538923
H           -6.07872165936246       -3.38613662675285       -0.64353202144104
O           -9.15068495833100       -0.94687136094100        0.24913156149477
O           -9.53625281892033       -1.26681228120512       -1.90579083543592
