42
 energy: -62.486133513861 gnorm: 0.000479294833 xtb: 6.7.1 (edcfbbe)
N           -1.84876151508662       -0.52798867540318        1.45817172332487
H           -0.91851288365146       -0.90917736627822        1.33426851254813
H           -2.25504225302434       -0.97944119350321        2.27352160204682
H           -2.77552858532118        1.16506168929676        1.49465614679943
C           -2.68250293946719       -0.79719756637065        0.28576204428464
H           -2.10060494821513       -0.50411762488414       -0.59860941022466
C           -3.13155400004211       -2.24851944733271        0.13589971440871
C           -3.87025674429013        0.14919652874305        0.35916433020165
H           -3.66013515862097       -2.57507383231932        1.02849689651373
H           -3.80689073824660       -2.32864900851570       -0.70845685090452
H           -2.27275559960704       -2.89722352698016       -0.02402118895344
O           -3.65555365161495        1.26818204393789        1.07943927382414
N           -4.93984550102134       -0.14384282145815       -0.23009604790539
H           -8.35484830296768        1.39902207141839       -0.84580272299858
C           -6.06767606010447        0.75560431907826       -0.21657598760870
H           -6.08985502069696        1.34492288070400        0.71507124287176
C           -6.01081007687959        1.71998155614978       -1.42325899269721
C           -7.31402729862410       -0.10313321990301       -0.24590516387288
H           -4.97843958149459        1.75519537857845       -1.77562973268791
H           -6.60547323251620        1.30465210927771       -2.24153587299809
C           -6.46599550384261        3.15172449961375       -1.09969584042215
O           -8.48365547365267        0.47348481545966       -0.60268521370018
H           -7.33794332704530        3.12383973827950       -0.43174994165835
C           -5.35265011850857        3.91477837972159       -0.38486493472250
C           -6.86784939938071        3.88111906979092       -2.38074526861167
H           -4.51666874868999        4.07575980751159       -1.06218437697793
H           -5.70964020786295        4.88370270605873       -0.04345884756736
H           -4.98879617571708        3.35693314193679        0.47403573250107
H           -7.70098581480711        3.38320925088096       -2.87367309150215
H           -7.16499830440587        4.90324277049569       -2.15790472295917
H           -6.03028728395097        3.91196016430283       -3.07396808966001
N           -7.21366680217022       -1.30190507814367        0.11105030654176
H           -6.13819185060431       -2.57371354351278        0.68515425774576
C           -8.30258690811675       -2.24160808998905        0.16846613485436
H           -9.15154898248174       -1.85086029051703        0.74368824786854
C           -8.79417484706633       -2.65537471716777       -1.22274150610417
C           -7.74682643833570       -3.48853777867595        0.88150678440606
H           -7.95441436258835       -2.99937673178498       -1.82321587779995
H           -9.51560156079043       -3.46148840640461       -1.12278029191010
H           -9.26262008460703       -1.80911427146844       -1.71858792121516
O           -6.43171171369222       -3.45102694015397        1.04636193026133
O           -8.43630329286070       -4.40622864915627        1.23236825673923
