42
 energy: -62.486133518419 gnorm: 0.000479196098 xtb: 6.7.1 (edcfbbe)
N           -2.10687728997363       -0.59477851628184       -1.66607408644948
H           -2.11375155297278        0.34678922505069       -2.04615828495229
H           -2.02425759822007       -1.24245382623390       -2.44226573854939
H           -1.40639631493379       -0.46262142869839        0.15293585467975
C           -3.33891026313479       -0.85681837347466       -0.91442620582694
H           -4.25526788917490       -0.57259625011504       -1.44279093479106
C           -3.39372904919707       -2.34692029566260       -0.57320110670192
C           -3.21613364560289       -0.07571507513836        0.39460526656019
H           -2.49165310968096       -2.64496509019855       -0.04190029261298
H           -4.25649038225946       -2.54610352224292        0.05340259616040
H           -3.47615965684403       -2.93826088512725       -1.48277798135460
O           -1.96290745573862       -0.09391636119465        0.86906824276709
N           -4.05650399004218        0.56133068330433        1.07950424656312
H           -7.57922198757102        0.47734579310481        1.90850281877152
C           -5.43615036758698        0.86936061440696        0.87829380982903
H           -5.75090955423409        1.27865452644535        1.85064250982127
C           -5.55400651236360        1.98939788135411       -0.18574276319827
C           -6.41413223163077       -0.22625600075734        0.50879326254506
H           -4.79581230168804        2.73956630886565        0.04762977652108
H           -5.30704105888096        1.54598361718849       -1.15206421922096
C           -6.92818342321758        2.66276959524301       -0.27773856663711
O           -7.59730068942232       -0.20381753025435        1.22455531315355
H           -7.70346279069864        1.89468207054082       -0.37502247215203
C           -7.22526251734732        3.52365629750412        0.94900213952941
C           -6.97785654178071        3.53053242118414       -1.53479965611709
H           -6.47680670101330        4.30693133149122        1.04571846643865
H           -8.20131168880307        3.99315030394576        0.84992354219625
H           -7.22442300083607        2.94328550378844        1.86901623972231
H           -6.82733008135684        2.92520093372845       -2.42530401016475
H           -7.94354096840589        4.02325189762222       -1.61746212525116
H           -6.20360470276875        4.29391734838331       -1.49964308748855
N           -6.17222808611902       -1.05887594941330       -0.39078327358908
H           -8.73179528482584       -0.56094975142462       -0.15995157436209
C           -7.03179322852029       -2.11991250140262       -0.85512251828140
H           -6.41020370772241       -2.71798896984578       -1.53184833739974
C           -7.59459956073834       -3.03077658072585        0.24272518390617
C           -8.18592708463720       -1.56426123694875       -1.70469054128824
H           -8.26783756003000       -2.49478942429500        0.90787983396429
H           -8.13481417443042       -3.85499862131372       -0.21666083435855
H           -6.77577489769420       -3.43371761012107        0.83513895277126
O           -9.00521837671879       -0.71682929561042       -1.08376886210942
O           -8.35060309045270       -1.87938275682235       -2.84812733767043
