42
 energy: -62.486133502856 gnorm: 0.000480802964 xtb: 6.7.1 (edcfbbe)
N           -2.16854235550329       -1.54436093140225        1.49014288294159
H           -1.21650425459322       -1.88878015766537        1.47283907927651
H           -2.76918206944787       -2.31835997276681        1.76129217553070
H           -3.24671629276116       -0.12139621102877        2.18087730772443
C           -2.57000676392608       -1.04386054001516        0.17679359296160
H           -1.76255899206186       -0.39612900162711       -0.18772949286007
C           -2.85259488975244       -2.12961201250685       -0.85941920755558
C           -3.78973021776630       -0.15781720482675        0.38835585302568
H           -3.63378480964914       -2.79454513550472       -0.49725572650718
H           -3.19670406019126       -1.66817305285433       -1.77831676634991
H           -1.95494412856186       -2.71155697674751       -1.05866972532987
O           -3.95452952621077        0.28873982463753        1.64337836348372
N           -4.54247999673853        0.10203532261102       -0.58521336966180
H           -7.07158123572034        0.53549342634578       -2.43517989247644
C           -5.71700309644955        0.93826253197426       -0.40490953451709
H           -5.77900843745583        1.31289098413691        0.62397049654566
C           -5.65284001250619        2.10687847194384       -1.39085370394470
C           -6.87784508421502       -0.01496159105924       -0.61511880958921
H           -4.74662539403680        2.67258101610734       -1.16316497146239
H           -5.52039280749971        1.71593145449262       -2.40530451275204
C           -6.86065018398460        3.05261581600472       -1.32984322747365
O           -7.47926788035416       -0.08246600397414       -1.81479354177919
H           -7.78815198260808        2.47088837878759       -1.38350256443010
C           -6.87786742804864        3.84624199227770       -0.02525962193172
C           -6.82134205685026        4.00925259122701       -2.52139074213696
H           -5.95973706719408        4.41974253386048        0.08244071362982
H           -7.71686553041095        4.53817879327547       -0.01836985374584
H           -6.97714096374737        3.18769551594791        0.83331067080495
H           -6.85666854720251        3.46621555984613       -3.46392521415488
H           -7.66846562223068        4.69003198989123       -2.49008233130006
H           -5.90757723106039        4.59921009481545       -2.50077226122497
N           -7.16165052365263       -0.77904202609117        0.34523670222553
H           -6.89612927940924       -1.22913730335152        2.05440792881203
C           -8.16085185401634       -1.81828548330134        0.27070633257816
H           -9.13280769756577       -1.41868894647027       -0.04531033855220
C           -7.76370690303753       -2.95637795193165       -0.67590022101950
C           -8.30497764357875       -2.39291939496511        1.69034631699082
H           -6.76955280646810       -3.31823019830356       -0.42067993419280
H           -8.47638147455192       -3.76982531426913       -0.57259752488406
H           -7.75841988269354       -2.60504447578572       -1.70389871365360
O           -7.42224253073318       -1.90300684882692        2.55142234341186
O           -9.12216174332657       -3.22233536872508        1.98087619099826
