42
 energy: -62.486133508115 gnorm: 0.000480790653 xtb: 6.7.1 (edcfbbe)
N           -0.94062580059646       -0.55549331247757       -0.47371205222665
H           -0.22612969642202       -1.22215570397503       -0.73934068650649
H           -0.68234069391607       -0.17641229255664        0.43343220872628
H           -1.89703638280571        0.91793338263338       -1.18967073224492
C           -2.25085076183398       -1.19937267029789       -0.38423699151820
H           -2.36980707141776       -1.82193720091004       -1.28052134101910
C           -2.45380467370456       -2.06273333591460        0.85769757372520
C           -3.30434349302462       -0.09649040239747       -0.47545015556739
H           -2.30148833038739       -1.46703505456949        1.75546805882044
H           -3.46967370619025       -2.44220354823691        0.86936754454041
H           -1.75412828496158       -2.89614488837504        0.86146047747933
O           -2.85797593319329        1.04200892090778       -1.04232981836551
N           -4.45983972598962       -0.34448479136474       -0.05881365446831
H           -5.86292107608347       -0.17530563730113       -2.34179536035123
C           -5.60988995533939        0.52713965001189       -0.05327937268287
H           -5.85212582417033        0.67654452846361        1.00464267793704
C           -5.50409197753099        1.88819710217257       -0.75806437201782
C           -6.72877579399974       -0.30682955641071       -0.64453764943744
H           -4.75821450618600        2.48994375085797       -0.23696170040859
H           -5.14250515352160        1.75020065975950       -1.78120954992600
C           -6.83486944288118        2.65021980775087       -0.80112324671417
O           -6.65124709706197       -0.58323947587098       -1.96143255521002
H           -7.57619209271295        2.04147350107313       -1.33198141086533
C           -7.37061891451430        2.94270181295677        0.59820750338946
C           -6.64144607803445        3.95521023603149       -1.57246630608322
H           -6.61756516103168        3.45332151528361        1.19492288749542
H           -8.24756612798240        3.58257190995625        0.53413855474289
H           -7.66084295197293        2.02654993199352        1.10516758294977
H           -6.27556435478798        3.76234073195691       -2.57876978529019
H           -7.58206637408872        4.49504673588660       -1.64928089219447
H           -5.92123753599858        4.59133105122928       -1.06227044400450
N           -7.64464391223537       -0.73955793600463        0.10120141672006
H           -8.56546598451862       -0.68269672019313        1.66772158456880
C           -8.71586740004152       -1.56631558367271       -0.41013508442910
H           -9.08847126306765       -1.20499736761163       -1.37678052906239
C           -8.27196179254267       -3.02531242797464       -0.56438386910456
C           -9.85761109436728       -1.51576411222452        0.61518011950959
H           -7.86297167975131       -3.38928467794978        0.37587075849356
H           -9.12793285315658       -3.63392857212485       -0.84208831412153
H           -7.50827023835627       -3.09922730962359       -1.33432349956733
O           -9.50177713731082       -0.97163971304085        1.77311370975053
O          -10.95543292245605       -1.94619874027142        0.39630174002785
