42
 energy: -62.486133505367 gnorm: 0.000480626185 xtb: 6.7.1 (edcfbbe)
N           -1.35285166308432       -0.25172792049736       -0.52406412125745
H           -0.50135338548845       -0.79330213889431       -0.41327111480048
H           -1.62729036768124        0.09481663367471        0.38905529722914
H           -3.75198252618252       -0.22393361107165       -2.89698981003072
C           -2.41703772211161       -1.09757251871870       -1.04429033912230
H           -2.17081404962458       -1.31313178852790       -2.09481863174167
C           -2.59032366305465       -2.42418959373574       -0.29140279606145
C           -3.71341654670647       -0.30852965711927       -0.97697404938158
H           -2.84761764666268       -2.21680638057404        0.74373384375629
H           -3.39047811598234       -3.00956046208491       -0.73682330276283
H           -1.66859763468840       -3.00224441636520       -0.32825073656068
O           -4.26845720713208        0.07617840889251       -2.13820964993836
N           -4.16203783339356       -0.05748565839810        0.17116682008907
H           -7.09026681117613        0.02030684383352        2.09178292622062
C           -5.40029203991771        0.63102230908642        0.44244847513582
H           -5.33500086835895        0.89501683586054        1.50862760770910
C           -5.64399104425801        1.90573430710581       -0.38316572487541
C           -6.55610570332679       -0.32560395489378        0.24730866308770
H           -4.73947091708217        2.51627565942321       -0.33972438935914
H           -5.80348286450494        1.60009493033970       -1.41619480043719
C           -6.84698270456072        2.72789973070691        0.09297650172032
O           -7.40719697939531       -0.47740077371492        1.32817214818999
H           -7.70834117306903        2.06109141245658        0.21702689154111
C           -6.57143470663828        3.43686921946498        1.41835818346179
C           -7.20579734691523        3.75961273865148       -0.97501049990027
H           -5.73284621010884        4.12136791410371        1.30929724862173
H           -7.44284945433841        4.01074494708269        1.72595606587912
H           -6.33386760101256        2.73582091590202        2.21571020293790
H           -7.46672217663752        3.26707486576662       -1.90821778995019
H           -8.05427478698377        4.36033763159276       -0.65571089961848
H           -6.36322747526615        4.42300797479512       -1.15820926837003
N           -6.69945145384884       -0.90482387568127       -0.84883451144887
H           -8.94701727576368       -0.51546056871593        0.36894564697388
C           -7.71624160371222       -1.85251512037397       -1.21882878235070
H           -7.40839440402600       -2.23997772018874       -2.19716056806613
C           -7.87794140920600       -3.02474545490934       -0.24131801232246
C           -9.08741157890270       -1.18976808351040       -1.42580155025951
H           -8.23895843292110       -2.68916498270963        0.72841505894733
H           -8.58296130353555       -3.74336654414793       -0.65180258857695
H           -6.91564385112346       -3.51244094238041       -0.10112808437676
O           -9.56137745721783       -0.49977915656212       -0.38894678339324
O           -9.70638327246670       -1.30176757906637       -2.44489750999517
