42
 energy: -62.486133516265 gnorm: 0.000478565466 xtb: 6.7.1 (edcfbbe)
N           -1.89606957556007       -0.84405088659492       -2.25958195195837
H           -1.22055568478130       -1.51396685731596       -2.60591522209532
H           -1.42646936705644        0.05376374403834       -2.18053697093531
H           -3.68084914968234       -0.24928565365373       -2.60649686527305
C           -2.41947166535968       -1.24782210822411       -0.95677151451859
H           -2.67157779881062       -2.31387498115392       -1.02084641566401
C           -1.45888480955082       -1.02795230153066        0.21037081388273
C           -3.73525090725136       -0.50396380663909       -0.74902774938815
H           -1.17943492829275        0.02168793957983        0.27220791976255
H           -1.94733742969780       -1.30637937716064        1.13743147524986
H           -0.55958053738427       -1.62720428205274        0.08138303970809
O           -4.29512623686115       -0.03986974338814       -1.87203759865250
N           -4.20344568532793       -0.42552474450154        0.41694562947863
H           -5.84117693862483       -1.84834658462059        1.86136417695712
C           -5.46640963802732        0.22595438789000        0.73096150112932
H           -5.44066999574159        0.36841622999611        1.82154316827792
C           -5.70875478549241        1.57489079635872        0.05186033268027
C           -6.52766686329486       -0.80286005707714        0.41319091866361
H           -4.81464591573093        2.18792520061528        0.18790780334615
H           -5.84584707802789        1.40501578538110       -1.01432896607832
C           -6.93021214894585        2.31418349047259        0.60933464961545
O           -6.57066017154621       -1.87952644675180        1.22905131380372
H           -7.74984878628675        1.59614070164941        0.71278450873100
C           -6.64060749240878        2.93522893823293        1.97445719187346
C           -7.36269004339515        3.40077963177231       -0.37330854973932
H           -5.82740983870876        3.65421149320168        1.89735632213870
H           -7.52044660553307        3.45439749829948        2.34767964720498
H           -6.36199936262462        2.18025635806826        2.70543410217634
H           -7.63689012855959        2.96530475195254       -1.33095757894013
H           -8.22076248952724        3.94571442393998        0.01357393972637
H           -6.55257997289589        4.10884017496382       -0.53555772060188
N           -7.24614869179192       -0.67949178946603       -0.61038788982353
H           -7.38284328273238        0.03614872017910       -2.25466388160074
C           -8.20112437173662       -1.67973888384814       -1.02011188182259
H           -7.81849767126739       -2.69916102719611       -0.87666056162064
C           -9.52476325902034       -1.53787205356445       -0.26179840722013
C           -8.46449687358308       -1.45794208089379       -2.51866939741244
H           -9.89396003717369       -0.51775573568397       -0.34774811026416
H          -10.25610907070577       -2.21835690924502       -0.68838622921729
H           -9.37737984708878       -1.77565118012736        0.78897740006736
O           -7.89204898075964       -0.36322429677158       -3.00104777733411
O           -9.13548713110347       -2.20106422790963       -3.18003939634644
