42
 energy: -62.486133509755 gnorm: 0.000479641790 xtb: 6.7.1 (edcfbbe)
N           -1.82651126023983       -1.13828490148981       -1.92981405467022
H           -1.16731080620307       -1.88208410384164       -2.12521429121536
H           -1.29813141077257       -0.27293162990314       -1.85488573568836
H           -3.52618913152265       -0.43907854112493       -2.52971713563520
C           -2.54257612844612       -1.39047086023280       -0.68006260683016
H           -2.90659359143488       -2.42532319022077       -0.71819324120690
C           -1.70431895532650       -1.19886834205058        0.58232268285453
C           -3.78533290676247       -0.50410627710156       -0.67451986125350
H           -1.30148721413608       -0.18835026269035        0.61386642411239
H           -2.33338022442327       -1.34321266281722        1.45363829892525
H           -0.88061744467088       -1.91000734181949        0.60654725864778
O           -4.16786617877739       -0.08149533700017       -1.88376942236229
N           -4.33394938187169       -0.26045343937302        0.43124151234382
H           -7.54689646059783        0.09610414297725        1.94562913063889
C           -5.56506766139454        0.47605235679219        0.58256305957140
H           -5.60569059054303        0.71890211769477        1.65511959665750
C           -5.66063723703336        1.77519836956102       -0.23917181265818
C           -6.73954024251112       -0.41413618633560        0.24316712214211
H           -4.73704305322332        2.33832458850079       -0.08732100630805
H           -5.72060457026429        1.49296061211727       -1.28968264332804
C           -6.86271314313037        2.65521633913425        0.12264861644711
O           -7.77245208799515       -0.42686236184303        1.16671460677177
H           -7.76519587594130        2.03450447360792        0.15896627216878
C           -6.67915435311726        3.34674213385433        1.47321684534049
C           -7.06844790037217        3.70505232918333       -0.96804332060660
H           -5.80857657167285        3.99868194275174        1.44384255564743
H           -7.55124649585366        3.95310962009188        1.70829919375670
H           -6.53798836696125        2.63288736269740        2.28216415629565
H           -7.26723146073452        3.22714200950562       -1.92389745628787
H           -7.91153788044167        4.34762743966603       -0.72439832724787
H           -6.18059312052669        4.32547551403537       -1.06968512157599
N           -6.74560406446389       -1.05444110468287       -0.82769656799420
H           -9.11403087042578       -0.39311624870999       -0.05515508657645
C           -7.76686611965568       -1.94155477628818       -1.31695607897280
H           -7.33201153697932       -2.42488013794331       -2.19955514114530
C           -8.20785813206546       -3.02031221916743       -0.31802665821597
C           -9.01125744702601       -1.18244517928610       -1.80358592266122
H           -8.69966489947799       -2.58510768225549        0.54920339210817
H           -8.89528194295392       -3.70630106990321       -0.80688811841676
H           -7.33548141662313       -3.57422229549097        0.02182130579091
O           -9.58661560384048       -0.37935121973653       -0.90879750257814
O           -9.45663753565211       -1.31860962239388       -2.90699971798913
