42
 energy: -62.486133511213 gnorm: 0.000479821492 xtb: 6.7.1 (edcfbbe)
N           -1.29582729574376       -1.48026440531108        0.87953802377606
H           -1.02705904604936       -0.85107568690824        1.62907800158874
H           -0.46438234332418       -1.97026107812101        0.57097720884298
H           -3.12310429253275       -1.88535135458745        1.37859992340357
C           -1.90524232451702       -0.74146600858248       -0.22378767419843
H           -1.42042759789112        0.22063294491880       -0.43953492138694
C           -1.89402495260127       -1.59817643810447       -1.49194087483716
C           -3.34984974948310       -0.46995843157113        0.16390117625161
H           -2.39739891762046       -2.54659056271119       -1.31216386428260
H           -2.39568533929118       -1.06867069195687       -2.29724341777328
H           -0.87046734749578       -1.80305071985893       -1.79854793855238
O           -3.85710192064834       -1.30724694965834        1.08544579309805
N           -3.96559166693142        0.48591417320999       -0.37943735416333
H           -4.86089951810334       -1.33744879209164       -1.27836391330100
C           -5.36297055983306        0.74647887772595       -0.10764115400631
H           -5.48304665817236        1.05582521110403        0.93710379958275
C           -5.74946511182651        1.90891950720567       -1.04479665059004
C           -6.26452121274451       -0.45296833607638       -0.33131662927004
H           -5.00141160393454        2.68769790145600       -0.88626380293685
H           -5.63825135468884        1.55582013101367       -2.07264262572865
C           -7.14752435131508        2.50244350035791       -0.86770511055271
O           -5.77685081745221       -1.50507148942351       -1.01553445947663
H           -7.88668183386259        1.72266004476497       -1.06816368390062
C           -7.36882338056905        3.03769598864619        0.54428215883856
C           -7.34808001754515        3.62364467090414       -1.88686290996485
H           -6.62446629808640        3.79467088965896        0.78402321933522
H           -8.35479729560918        3.48925005660726        0.62169736264751
H           -7.30366972931947        2.24073130322181        1.27994234835525
H           -7.20870376324526        3.25475313339981       -2.90034812281553
H           -8.35309448279894        4.03011231006181       -1.80693627700855
H           -6.63683927467206        4.42879491639285       -1.71369120140312
N           -7.48222097040834       -0.35528798558767       -0.01798857849183
H           -8.91324812954822        0.60060496043215        0.63163319700614
C           -8.42093103642717       -1.41744302979270       -0.30158520845763
H           -8.31614422041226       -1.78992437526455       -1.32878579649999
C           -8.26062595372435       -2.59401827391436        0.66844470833375
C           -9.83177652103104       -0.84150767707414       -0.12098615760928
H           -8.33551652376194       -2.24105531100616        1.69515820191662
H           -9.04507124211963       -3.32240136529782        0.48309576477485
H           -7.28958818452095       -3.06076903723789        0.52484254565137
O           -9.85132712446386        0.33804617979508        0.48832566415018
O          -10.82348129249521       -1.41671454501353       -0.47488563253750
