42
 energy: -62.486133525095 gnorm: 0.000478210095 xtb: 6.7.1 (edcfbbe)
N           -0.88441859389204       -0.66360621338932        0.56468946039064
H            0.07523259832557       -0.72832753730124        0.24833627671874
H           -1.08773082978190       -1.50336694745420        1.09985042688663
H           -2.05930324563452        0.61008011955940        1.41511428162607
C           -1.80673755213637       -0.55552907559530       -0.56389933856065
H           -1.39833861532929        0.19889889642160       -1.24884710912938
C           -2.03409023114923       -1.85708760822444       -1.33182782316838
C           -3.10871822193868        0.01402373075096       -0.01818800534948
H           -2.44604665638966       -2.61880301138778       -0.67193631773292
H           -2.73072315552735       -1.68465513401838       -2.14566423498744
H           -1.09428674326544       -2.22097012638765       -1.74228266564309
O           -2.98934612873317        0.70268951034591        1.12439608324245
N           -4.18073076296789       -0.14906424719126       -0.65905381136865
H           -5.01512425128463       -1.78991696584337       -0.86391853437325
C           -5.44063169087200        0.37884892511956       -0.16897513228620
H           -5.38473791987494        0.63230567007484        0.89806248919074
C           -5.72559328819953        1.65512468777134       -0.98182261111092
C           -6.46611991604218       -0.72777513896342       -0.34114516041747
H           -4.90777078093851        2.34655780293627       -0.76036939807406
H           -5.65877850549858        1.39168956851657       -2.03983420590331
C           -7.05654969774641        2.36493006248435       -0.72675845375598
O           -5.96114560967513       -1.93197094489685       -0.65609854192473
H           -7.86140949715953        1.73302314222424       -1.10719519557352
C           -7.29065477790172        2.63117585333539        0.75725795875462
C           -7.07505086056107        3.68005933386290       -1.50547908717025
H           -6.46553547232377        3.20466238368626        1.17541940437803
H           -8.20687955648588        3.20044029835794        0.89478854542843
H           -7.38151620671763        1.69865594853183        1.30736325039427
H           -6.90216063163598        3.50415821646177       -2.56459682471814
H           -8.03908797777644        4.16969375519203       -1.39349923316694
H           -6.30330101323196        4.35385879501714       -1.13827921949837
N           -7.70222980380924       -0.49529593554430       -0.24849522313242
H           -9.15987771522897        0.60608874076258        0.08485818535659
C           -8.66907787627522       -1.55685069989826       -0.43224610560464
H           -8.46342370227810       -2.13811926195074       -1.33978864845432
C           -8.70842072227715       -2.51400610692357        0.76603335332699
C          -10.05244634917311       -0.90647687203775       -0.55320734157477
H           -8.87957565815293       -1.95449994576912        1.68397380583437
H           -9.51537230380866       -3.22843842675372        0.62905061146216
H           -7.76407374480298       -3.04628898822762        0.84474073342138
O          -10.08374420927485        0.35610178067658       -0.14241279834854
O          -11.02066338342732       -1.49404388360135       -0.94917881917047
