42
 energy: -62.486133519754 gnorm: 0.000479051152 xtb: 6.7.1 (edcfbbe)
N           -1.72637563685931       -0.69046197960887       -2.17702209424867
H           -1.05201632119854       -1.34843440665192       -2.54786707772177
H           -1.22727381027827        0.16379687484505       -1.94454562568049
H           -3.46247030686517        0.00728511566127       -2.59767837953715
C           -2.38140690885451       -1.22384798211050       -0.98443308233137
H           -2.68534465812721       -2.25367839203319       -1.21348855849216
C           -1.51403015269661       -1.22250629308066        0.27227700797237
C           -3.67018576284062       -0.43011455583096       -0.78627867301590
H           -1.18165975677649       -0.21083196890931        0.49615992761946
H           -2.09438663553353       -1.58483991542225        1.11359556321618
H           -0.64281116413157       -1.85977576691368        0.13377991157284
O           -4.12608149332656        0.16599551063998       -1.89435467446384
N           -4.20468309485307       -0.43002176305789        0.35242638026542
H           -5.79078213321843       -1.84856714959818        1.79571871867660
C           -5.45829515855164        0.23287354916205        0.67427212508713
H           -5.42218291626876        0.37777072223706        1.76433058292709
C           -5.72179519532764        1.57774160866120       -0.00492137984135
C           -6.52139952396638       -0.80048458188210        0.37386660317420
H           -4.83320995257835        2.20141781598786        0.11651637717806
H           -5.87174184960062        1.40502211198995       -1.06889191897993
C           -6.94357008516481        2.30397912437652        0.57040655211134
O           -6.54149008732456       -1.87775693589302        1.18877524073275
H           -7.74902747768652        1.57406208167764        0.69976127084274
C           -6.63541540429394        2.94431095937940        1.92254541504849
C           -7.41595491262107        3.37306509775538       -0.41312276107376
H           -5.84684296667452        3.68697969722328        1.81773155149165
H           -7.52006135984665        3.43975902049258        2.31629612690758
H           -6.31366736025532        2.20384427637404        2.65086621781084
H           -7.70735547154707        2.92365636818686       -1.35912905149044
H           -8.27214304154429        3.90968512417316       -0.01073009008112
H           -6.62055755469213        4.09079995003747       -0.60285372966748
N           -7.26115864211843       -0.68191283540670       -0.63529769981746
H           -7.54613647702699        0.08826185100106       -2.24097121628157
C           -8.22851519804987       -1.68613719357510       -1.00827265403612
H           -7.82682646402597       -2.70256397658541       -0.90481075292550
C           -9.50766257739937       -1.57306727974242       -0.17191989962438
C           -8.58536568106219       -1.43936051942556       -2.48252414699802
H           -9.89789605609535       -0.55858853605255       -0.22596653323709
H          -10.25216020908965       -2.26186377268517       -0.56094468180406
H           -9.29451252500623       -1.81763257969522        0.86579732049811
O           -8.08550806151883       -0.30956116395621       -2.96571083167996
O           -9.26623120852753       -2.19032307143561       -3.12445217542213
