42
 energy: -62.486133505940 gnorm: 0.000480836653 xtb: 6.7.1 (edcfbbe)
N           -1.77462384259523       -2.05967104337159        0.43108529548953
H           -1.30465727006908       -1.64010429691914        1.22659683384195
H           -1.10445253157480       -2.64367641051282       -0.05498199906117
H           -3.60754189515086       -2.19873236726759        1.00882507655374
C           -2.30485114129123       -1.02876152151356       -0.46144830931405
H           -1.64455690188066       -0.15891014237395       -0.57721271702999
C           -2.59107656880588       -1.62838090829474       -1.83808926619194
C           -3.62714421745042       -0.55639410372677        0.11733058199692
H           -3.24962734689551       -2.48823903975981       -1.74000147283117
H           -3.07875465397280       -0.88427538602160       -2.45933463204335
H           -1.66565531656239       -1.94334356662910       -2.31659707006819
O           -4.22637553623157       -1.44176666040489        0.93373329656531
N           -4.05280589153708        0.58296836069540       -0.19377021350475
H           -6.91212184749346        0.64624179770910        2.04910925362874
C           -5.35564365290532        1.06280064147720        0.20247248264262
H           -5.25028690467335        1.54852776230479        1.18485743072479
C           -5.78547185739661        2.10152531773722       -0.84756923627808
C           -6.40712701234602       -0.01971976330391        0.28708505965566
H           -4.97853316769649        2.82880233182757       -0.94303990181388
H           -5.87274767017617        1.56585931011838       -1.79322718558994
C           -7.10500153142232        2.81597344602449       -0.53960596002466
O           -7.21888799299975       -0.00387142777452        1.40624801830320
H           -7.87134132832979        2.06824011952185       -0.30585109549291
C           -6.97114600300378        3.77626892708299        0.64136749854881
C           -7.56567349323228        3.58376070220435       -1.77712996713274
H           -6.22298354493077        4.53547107577214        0.42397017972830
H           -7.91925552393826        4.27446220861346        0.83114928479507
H           -6.67629949898033        3.26150756500973        1.55337266919072
H           -7.72002770443628        2.90402349847751       -2.61094759090136
H           -8.50194171892889        4.10007723433113       -1.57885672322269
H           -6.81944493185589        4.32097862627862       -2.06534890203286
N           -6.51509642973149       -0.83481250896408       -0.65373585193503
H           -8.76291116221331       -0.38569793467969        0.53462905408321
C           -7.44386207937454       -1.92950503861202       -0.75693614712818
H           -7.11474923874743       -2.50573939085969       -1.62974402797115
C           -7.48106189486009       -2.85055470227903        0.47015920904453
C           -8.87049674761238       -1.45006630328418       -1.06091093473310
H           -7.90797171268846       -2.34794154141650        1.33524174377150
H           -8.07571055965142       -3.73211571011901        0.24404082471366
H           -6.46685775718261       -3.15467349889395        0.71782367368206
O           -9.38898108186028       -0.58709603151460       -0.18637574168035
O           -9.49243408042581       -1.83546545259277       -2.00944713662092
