42
 energy: -62.486133506458 gnorm: 0.000480828960 xtb: 6.7.1 (edcfbbe)
N           -0.93611627235081       -0.75517254403837        0.02397746254825
H           -0.09108211155286       -0.97641535239647       -0.48805205723474
H           -1.04347112655418       -1.45630378358968        0.75273111726481
H           -1.83055898343926        0.73372992851824        0.86016848277376
C           -2.10234889415962       -0.78207469011058       -0.86010555648264
H           -1.83989547878751       -0.21817283184014       -1.76426808305259
C           -2.57678971476593       -2.17769205235110       -1.25739346651091
C           -3.21381653207942       -0.00407317792422       -0.17188815729298
H           -2.77174500750298       -2.77231322420049       -0.36683652516127
H           -3.50217590730057       -2.08915098197444       -1.81595518950332
H           -1.82660858521616       -2.68128236019858       -1.86363524845811
O           -2.79744206623800        0.85917027185090        0.78023826869392
N           -4.40371893854903       -0.18579096101711       -0.52456377656453
H           -6.89946486382769        0.31094394640666        2.01535450292934
C           -5.48120055801468        0.56994746147535        0.05891334931290
H           -5.20478369006493        0.96895619204896        1.04915708444006
C           -5.83125067479159        1.72897329595892       -0.89358445381262
C           -6.67922835332556       -0.33996816529454        0.18662201761664
H           -4.94243218981575        2.35241848557738       -1.01047142181306
H           -6.06137909446258        1.27175021808615       -1.85651063444193
C           -7.01003450530066        2.59386123324148       -0.43589039104335
O           -7.34410910557471       -0.28889474580628        1.40381586661062
H           -7.84743412852286        1.94230836555887       -0.16228917298967
C           -6.64166874527910        3.46473508287758        0.76448032047743
C           -7.46735834796249        3.47833044897622       -1.59432873631371
H           -5.83888157054715        4.14894323319384        0.49783353685771
H           -7.50008469602141        4.05179289798698        1.08294783218764
H           -6.30854982341756        2.86912643151048        1.61161533636359
H           -7.79101096189250        2.86824956562532       -2.43357530265918
H           -8.29936759160865        4.10768707833047       -1.28752038669591
H           -6.65358230255514        4.11984070802434       -1.92599387158946
N           -7.01613967643759       -1.06163603771178       -0.77230842700590
H           -9.01485152404742       -0.38936146332059        0.72429326742322
C           -8.10942142190074       -1.99470047620503       -0.83251247466567
H           -7.98200248992188       -2.52876432996141       -1.78123106072270
C           -8.13697899992323       -3.01256778040502        0.31607743367395
C           -9.47695496642185       -1.29756815033677       -0.90525281777006
H           -8.31771812814358       -2.52906229964518        1.27381815198581
H           -8.92158823359008       -3.74307876131673        0.13501229260021
H           -7.17894310535576       -3.52508782029956        0.36214704330806
O           -9.74841163537260       -0.44459761224977        0.08294164699548
O          -10.26559025431791       -1.51906088806773       -1.77904264328493
