42
 energy: -62.486133508589 gnorm: 0.000480631896 xtb: 6.7.1 (edcfbbe)
N           -1.18016865141289       -0.64114347422669       -1.28021714109132
H           -0.55299815316673       -1.34946148774402       -1.64163578400358
H           -0.69237416285271       -0.15021254238193       -0.53579182917261
H           -2.35571983399091        0.74569691083519       -1.89678228381044
C           -2.40460151098417       -1.24418428146622       -0.75742657899205
H           -2.77013719521100       -1.94685507517787       -1.51737426770034
C           -2.23362258737658       -1.98291426398875        0.56787480739688
C           -3.45363660845554       -0.13731589463595       -0.65982222561962
H           -1.86573296391495       -1.30093338422051        1.33189362225452
H           -3.19318992980522       -2.37292296366400        0.88856376012720
H           -1.52910770852329       -2.80505939169776        0.45745180482038
O           -3.21312661573851        0.91487122107862       -1.45588351749600
N           -4.42461240382114       -0.31348838256644        0.11462369328214
H           -6.39191400333407       -0.91574412278607        2.03484576444267
C           -5.55735746953648        0.56255204475442        0.32446690156353
H           -5.48325733925919        0.89831213451006        1.36987047597756
C           -5.72754617518322        1.77409255177771       -0.59433869763020
C           -6.73353672503065       -0.38715496028452        0.20323090742935
H           -4.82645682133999        2.38564718504038       -0.54924289241122
H           -5.84254130824936        1.39976755050884       -1.61085482221784
C           -6.94369169635361        2.63513866098738       -0.23422056389630
O           -7.06403768085912       -1.06489818071610        1.35898523188009
H           -7.82022344498269        1.98513172758290       -0.14461390596699
C           -6.74519242054063        3.38328356028040        1.08308852103174
C           -7.20418345279781        3.63370561053701       -1.35999137108161
H           -5.85588187849168        4.00872482898852        1.03280863251905
H           -7.60168387479560        4.02290033388343        1.28353552675200
H           -6.63860199698350        2.70021647158484        1.92265802226566
H           -7.39800444735503        3.11083777917487       -2.29267284092913
H           -8.06721472278617        4.25381236311264       -1.12900744737393
H           -6.34121540017937        4.28171479439720       -1.49919374280040
N           -7.26576401758610       -0.57740698899281       -0.91034432826308
H           -8.86156492173756       -1.02899588371585        1.07301270758346
C           -8.31231295304802       -1.51309548920077       -1.22940997719909
H           -8.40180678599956       -1.48408869077680       -2.32157883571980
C           -8.02948517114917       -2.95543727633869       -0.78649593313756
C           -9.67715004225199       -1.08612899517021       -0.66828241656800
H           -8.00902068767281       -3.04361807412772        0.29747229727664
H           -8.80076215563903       -3.61252348124001       -1.18050861650164
H           -7.06319784516800       -3.26697717945278       -1.17684357590695
O           -9.72589241500435       -0.87874577568460        0.64752019342019
O          -10.64766509186755       -0.96912529415781       -1.36043414247822
