42
 energy: -62.486133490795 gnorm: 0.000482625637 xtb: 6.7.1 (edcfbbe)
N           -1.44638726717045       -1.57333236472784        0.21338556309091
H           -0.85624071879381       -0.83076618523643        0.57377971755081
H           -0.84466220071639       -2.28059343012137       -0.19183850069881
H           -3.00469137508236       -1.52679602331893        1.37062758458916
C           -2.37905259987195       -1.05514872192390       -0.78848426594246
H           -1.94489380662394       -0.29202500169798       -1.44797728514755
C           -2.92433841523949       -2.20181767252870       -1.64035248257808
C           -3.55087558992623       -0.44077556847507       -0.04949271778330
H           -3.33194303802858       -2.97953704561109       -0.99852648836267
H           -3.71754728561647       -1.82523398385563       -2.27824896294386
H           -2.13556487301811       -2.62837678031886       -2.25653880499795
O           -3.75402581900191       -0.92189843597414        1.19187050199790
N           -4.26893544226044        0.41312092629490       -0.62683800674943
H           -7.38694022319240        0.82677997435960        1.48856863731992
C           -5.44243868630060        0.92356117655812        0.04206976044647
H           -5.22323706211984        1.15233770893467        1.09755742389491
C           -5.85570811663387        2.19336661380310       -0.72652753739020
C           -6.54093768698959       -0.11169656819688        0.00224546231691
H           -4.97881538892164        2.84261955042276       -0.75696856071309
H           -6.06343878749439        1.87793010697331       -1.74989080609504
C           -7.04881498203263        2.98288338380992       -0.17986850445320
O           -7.57219946041019        0.07945762391100        0.90707677967867
H           -7.92378293394011        2.32716998921519       -0.11019096537752
C           -6.75624921190608        3.58739706019638        1.19394473724074
C           -7.39772208564520        4.10056375619214       -1.16257840273008
H           -5.92317697142154        4.28357220094114        1.12357750989060
H           -7.62448456457160        4.13135122870808        1.56007744866054
H           -6.49670041124577        2.83244082668803        1.93448383251504
H           -7.65461408552940        3.68765406290805       -2.13465420107051
H           -8.24608900234072        4.67618967610039       -0.79950956118756
H           -6.55281773962803        4.77415085509555       -1.28734737630568
N           -6.47450752879751       -1.06713958776314       -0.79789911445467
H           -8.90011165551797       -0.41468194804664       -0.20849667724334
C           -7.40342172939201       -2.15672874983017       -0.94127758147678
H           -6.92294571748579       -2.85498437820431       -1.63679150214933
C           -7.71870712167429       -2.89142428469032        0.36946431807185
C           -8.72714703414626       -1.73213566855115       -1.59526788603853
H           -8.26907633540117       -2.25644943098613        1.06035733491241
H           -8.31130979240656       -3.77720641815458        0.15473631197096
H           -6.78780515915540       -3.19256379346129        0.84489906298251
O           -9.37905431613457       -0.73664968745647       -0.99572713237492
O           -9.16477903801454       -2.27661097590090       -2.56849352532727
