42
 energy: -62.486133519668 gnorm: 0.000479127256 xtb: 6.7.1 (edcfbbe)
N           -1.19872967683210       -0.69497112346886        0.81625687864592
H           -0.26517207787851       -0.99145129830841        0.55882800720091
H           -1.49914138466798       -1.27455354697326        1.59547022710598
H           -2.20979138343068        0.90667203733772        1.19760089552978
C           -2.12636670461684       -0.85408303479745       -0.30289170533403
H           -1.64364931466536       -0.42026942678763       -1.18869240205192
C           -2.52616079831805       -2.29722214771368       -0.60114128898463
C           -3.34233752917894        0.00803795604210        0.00230607844695
H           -2.98399986905308       -2.74649395433153        0.27756016889114
H           -3.25197581451065       -2.31342035022340       -1.40671708239427
H           -1.65480771824996       -2.88291115974849       -0.88742425625056
O           -3.12551459187134        1.00992281662298        0.86868780025941
N           -4.44394267669226       -0.24409876355637       -0.55039882043515
H           -6.10894849142480       -0.27788058750170       -2.44897446566885
C           -5.60448565009901        0.58630646418456       -0.28660710100501
H           -5.67931402332132        0.81710303101897        0.78231267391044
C           -5.54221541256723        1.89636941957501       -1.08812603088120
C           -6.78915059614990       -0.26304361656888       -0.68020091814250
H           -4.74475648604785        2.50742155467227       -0.66118447773416
H           -5.26102638775489        1.67219465482224       -2.12254520201512
C           -6.85523580179324        2.68689600463272       -1.08149653453320
O           -6.89452204410915       -0.58889959847297       -1.98083440390893
H           -7.64566795873248        2.06502825568996       -1.51738919394843
C           -7.27371045548577        3.07241662721667        0.33493598009915
C           -6.69483630790372        3.93771459942817       -1.94444097436252
H           -6.46669930808928        3.59990735379351        0.83894891553683
H           -8.14301281660795        3.72496915202811        0.30274001449844
H           -7.53434849827896        2.19204610853652        0.91607308945696
H           -6.41042307918087        3.67541557730166       -2.96139650635299
H           -7.62812832461426        4.49376082239047       -1.98457046830105
H           -5.92665158217334        4.58672943067660       -1.52921904740341
N           -7.55673915208589       -0.70343196799424        0.21564513121340
H           -8.18848117473691       -0.63120693423355        1.90485189456751
C           -8.66662927715602       -1.58022287543974       -0.08993760760611
H           -9.23919537351578       -1.22594643698975       -0.95609376293197
C           -8.19928577386261       -3.01480537288117       -0.35947340260496
C           -9.58737389274612       -1.59159850188211        1.13952206638740
H           -7.58555304321058       -3.36537774378430        0.46785503653885
H           -9.06666974793703       -3.66112177171924       -0.45987413779775
H           -7.61309942487444       -3.04766449612100       -1.27401540419730
O           -9.06191726003351       -0.98485337769538        2.19737907558075
O          -10.66652437147617       -2.11540960934408        1.14560629243667
