42
 energy: -62.486132282482 gnorm: 0.000624348623 xtb: 6.7.1 (edcfbbe)
N           -1.88337428191564       -1.50036489895421       -1.06054560127411
H           -1.29055325991783       -2.31625360269969       -0.97172307120658
H           -1.27793569141269       -0.68490665346716       -1.09827974671557
H           -3.37111198032789       -0.93700924623094       -2.09994652880106
C           -2.79739222116869       -1.38735951322119        0.07665759233625
H           -3.20853243385306       -2.38626104959314        0.26938044795779
C           -2.16453822945248       -0.84882527694612        1.35667364504443
C           -3.96802779402328       -0.52271348362727       -0.36846970083643
H           -1.71445357118488        0.12467833683601        1.17135976653377
H           -2.93435021360399       -0.73195508433895        2.11160184002200
H           -1.39834718499471       -1.53038279558173        1.72034375777262
O           -4.12289764088276       -0.44405135137890       -1.70879833181103
N           -4.71223984841277        0.00284244073052        0.49563362362419
H           -6.39320131848792        0.33153055024536       -2.22881699732671
C           -5.87123001934251        0.80505752063448        0.13915131665755
H           -6.26343983873444        1.14572759754971        1.10403153335250
C           -5.54043623767527        2.02266584801535       -0.72989305472127
C           -6.90511349828159       -0.13795242518439       -0.44489399398749
H           -4.76563867668300        2.59073745680679       -0.20908913698115
H           -5.10615664380057        1.70120176235800       -1.68096784087430
C           -6.74552507024251        2.93589815889040       -0.99414398711432
O           -7.05670000493731       -0.20894088720974       -1.77986039570339
H           -7.59030009282738        2.32984908743281       -1.34074436826355
C           -7.17660058968267        3.67519941981004        0.27032966686528
C           -6.39198189955055        3.94160983982270       -2.08970710622799
H           -6.35090999970148        4.26239165033233        0.66690203366654
H           -7.99967933334275        4.34984285026693        0.04652241416586
H           -7.50923059160250        2.98191177392011        1.03803245756471
H           -6.12912440575539        3.43622447902263       -3.01704075908054
H           -7.23533688031727        4.59822308209045       -2.28884326974417
H           -5.54712729872459        4.55405532306945       -1.78140760530430
N           -7.51215218816500       -0.90056537908103        0.35391999299157
H           -7.98403075112291       -1.33780811584925        2.04076195832910
C           -8.43491351292643       -1.91522483321401       -0.10151233496697
H           -9.14662826780985       -1.51917797980307       -0.83674797703002
C           -7.70644179805631       -3.11630129170345       -0.71570283710236
C           -9.21447315483788       -2.40050482488124        1.13046520591618
H           -6.95792179498445       -3.48840752976050       -0.01861669724923
H           -8.42568292932776       -3.90390064403945       -0.92199759382860
H           -7.21624844850712       -2.82144691407093       -1.64002728317807
O           -8.73335105070761       -1.93611633931561        2.27607966290308
O          -10.15287994574583       -3.14510467149423        1.05887825025890
