42
 energy: -62.486133502116 gnorm: 0.000480743961 xtb: 6.7.1 (edcfbbe)
N           -0.77401607353148       -0.09554547265266       -0.58564273959642
H           -0.00685058474913       -0.34594307072858       -1.19752270717103
H           -0.55043972045734       -0.44424612223190        0.34260851171752
H           -1.87357969228911        1.43810779882747       -0.16465678478890
C           -2.02838323568941       -0.68681270301611       -1.04988284293292
H           -2.10179801940277       -0.48976220397797       -2.12724311787193
C           -2.15999788474990       -2.18817388976458       -0.80629411634185
C           -3.16166473225332        0.09296878690958       -0.39701668313734
H           -2.05034705731976       -2.40813681246173        0.25407699916141
H           -3.14149126563970       -2.51917978451486       -1.12800820944372
H           -1.39705953496067       -2.73172680091570       -1.35963062769166
O           -2.83400122012507        1.33582880587149       -0.00570565605735
N           -4.28895758777008       -0.44803548658406       -0.27601261354922
H           -5.42470414757013       -1.87729514482451        1.36882233523255
C           -5.44366165054898        0.23532900123249        0.28050009333801
H           -5.24576636916150        0.50132101033498        1.32994792390478
C           -5.82391423401211        1.49669601332482       -0.50396957004679
C           -6.52964222608628       -0.81906623188663        0.23487327595087
H           -4.95255391923994        2.15121050249511       -0.54203105038496
H           -6.06364007388341        1.18663570291169       -1.52206728923648
C           -7.00413650876640        2.26983901716743        0.09491187582805
O           -6.32724180206826       -1.89499208200910        1.02573923248359
H           -7.79788775016627        1.56001440060011        0.34459550591346
C           -6.59552944866204        3.01720439305213        1.36271991614168
C           -7.54436493136073        3.25750370322642       -0.93792052953999
H           -5.79705021225313        3.72372891713000        1.14533521339696
H           -7.44194526193889        3.56960155553062        1.76447636268996
H           -6.24719305258921        2.33269971083626        2.13221619984342
H           -7.89077197362169        2.73726476488950       -1.82757507293511
H           -8.37863023169415        3.82019300769136       -0.52568737045300
H           -6.76815947930727        3.96174132643450       -1.23020558688060
N           -7.48972461804180       -0.72667555338303       -0.57060578473694
H           -8.27966937601411        0.12133400412061       -1.94220728908561
C           -8.49193501495918       -1.75685911256867       -0.70611324325431
H           -8.04030352404445       -2.75381418299937       -0.78570498483924
C           -9.48052045455128       -1.75593857220991        0.46507689950445
C           -9.26873312257569       -1.45427292551370       -1.99744248477460
H           -9.91394508029462       -0.76491796982811        0.58599202043768
H          -10.27527611465471       -2.46851228301990        0.26341348768907
H           -8.96778138744363       -2.03437689619107        1.38222693408212
O           -8.98351662938320       -0.26650929814628       -2.51649955996681
O          -10.06940605754353       -2.21045567038499       -2.47295180764808
