42
 energy: -62.486133520967 gnorm: 0.000478304704 xtb: 6.7.1 (edcfbbe)
N           -2.18722275338002       -2.30982567117020        0.74510548140397
H           -2.38130529143314       -2.28109589913807        1.74096759616368
H           -1.25163626871423       -2.67878038200098        0.62079676996357
H           -3.97443155103926       -2.54189521063973       -0.00099122245103
C           -2.30025235864925       -0.97493586128474        0.16138192120355
H           -1.84002965304757       -0.18020368289090        0.76406895838560
C           -1.67592716715386       -0.97152140145258       -1.23493382295778
C           -3.78493923055122       -0.67467536184484        0.02704465417019
H           -2.13358814159663       -1.74218047109922       -1.85215063140918
H           -1.82815872069728       -0.00254802962264       -1.70107722075621
H           -0.60746982551153       -1.16615043310075       -1.17192512416583
O           -4.55262536804207       -1.76572352676146       -0.14703911542367
N           -4.16630269002910        0.51933337210106        0.06933895451720
H           -5.92729804937447       -0.30315244482274       -2.12795580500562
C           -5.52902345961705        0.97575534168702       -0.07904196766313
H           -5.78178419417530        1.43725098645421        0.88243784244536
C           -5.54420397310875        2.05943671112684       -1.17019141262437
C           -6.56208308885242       -0.09964982467642       -0.33505540560691
H           -4.85763347134747        2.84533953251176       -0.85248564965407
H           -5.14093948234902        1.64445446519232       -2.10011510010145
C           -6.92930054101091        2.65868109564104       -1.44017400745021
O           -6.63554273984031       -0.64132909192095       -1.56698896647727
H           -7.60447789733043        1.86414000420380       -1.77771017536092
C           -7.52647569982848        3.29145970459720       -0.18579127270097
C           -6.81803140899835        3.69949370129430       -2.55371822029976
H           -6.83381498169110        4.01178494876878        0.24398700513233
H           -8.44963259156845        3.80970340092875       -0.43417408446266
H           -7.75628559659032        2.53585699308930        0.56056031327157
H           -6.40212877365867        3.26024188260102       -3.45817495942434
H           -7.79730779000767        4.10662810667040       -2.79250056514835
H           -6.17298189716056        4.51807682383480       -2.24185389421825
N           -7.33664320229016       -0.42229002319995        0.60554690443590
H           -8.07740937304520       -0.09570781027208        2.22716858020145
C           -8.35121309915134       -1.43870907432129        0.43157594231041
H           -8.87082366488751       -1.33746588687514       -0.52944128632978
C           -7.75320819385669       -2.84684489943699        0.52599822983089
C           -9.36588657672256       -1.26800181734765        1.56910433135964
H           -7.22442457689974       -2.96063675336335        1.47013046216242
H           -8.55051714720995       -3.58234074411874        0.47023045565185
H           -7.05264647732889       -3.00070362057376       -0.29026844882220
O           -8.95162709424077       -0.44171011543751        2.52399798931470
O          -10.41895722312982       -1.84158472032929        1.60325077393093
