42
 energy: -62.486133508076 gnorm: 0.000480016401 xtb: 6.7.1 (edcfbbe)
N           -1.47247771403122       -0.48989885386344       -0.01546627854595
H           -0.76947957212372       -1.18934325418681        0.19827157115965
H           -1.99155479626776       -0.28199335971215        0.83102079593524
H           -3.81360298109225       -0.32278312613056       -2.86387627348818
C           -2.39937422385571       -0.99487446877874       -1.00902355583452
H           -1.93093858512942       -0.86006996139233       -1.99652405125960
C           -2.76529328962110       -2.48030329535671       -0.83171896724433
C           -3.69261725265936       -0.20781792252151       -0.94899158673266
H           -3.19208580150260       -2.62942563631033        0.15699684635180
H           -3.49913288645868       -2.78896851374573       -1.57234360575034
H           -1.87725718069906       -3.10125082911893       -0.93692485251308
O           -4.29877453482440        0.05823607114895       -2.12149412361996
N           -4.12598273564561        0.10530116689231        0.18903937130325
H           -7.27960905611722        0.50522357829837        1.94151275696523
C           -5.39060145042470        0.75055938323130        0.43157583089045
H           -5.32789284088325        1.09012271116774        1.47643395663187
C           -5.69409119348156        1.95615935816308       -0.47870073081262
C           -6.50771265624117       -0.26267848979109        0.32242766502602
H           -4.78989630484916        2.56662305629996       -0.52992759725696
H           -5.90118638529162        1.57298670254704       -1.47744769212581
C           -6.86879400955573        2.82389109539594       -0.01263555923438
O           -7.49622209473206       -0.17070312820457        1.28759864473405
H           -7.73179197661672        2.18267891182922        0.20100295188766
C           -6.52339185129828        3.63214343236586        1.23775790042882
C           -7.26940965138524        3.77343470966284       -1.14087120891594
H           -5.69555169770334        4.30604442796081        1.02861894197580
H           -7.37823170394158        4.22844788582837        1.54949872243638
H           -6.23537734121326        2.99579076922672        2.07211122779978
H           -7.58071757551544        3.21344103330418       -2.01911981359986
H           -8.09515820911840        4.40893962788946       -0.82917844975786
H           -6.43070040342475        4.40908679924587       -1.41627285489903
N           -6.51251580624903       -1.08526681552253       -0.61629548498043
H           -8.89539575536384       -0.45322247960369        0.15934020547419
C           -7.48784989409462       -2.10720377871268       -0.88765748020142
H           -7.05821566017297       -2.71187105642911       -1.69497806418192
C           -7.80827513253681       -3.01748641489854        0.30539036235816
C           -8.80153427088788       -1.52493456963634       -1.43278496203230
H           -8.27739788248441       -2.46381788047696        1.11554404380729
H           -8.47901534566461       -3.81092285502639       -0.01528931678350
H           -6.88753672319951       -3.46109880574872        0.67761728029292
O           -9.40015289574803       -0.62090640617245       -0.65865598100958
O           -9.27339394474692       -1.87429435653421       -2.47664526909565
