42
 energy: -62.486133522504 gnorm: 0.000478659718 xtb: 6.7.1 (edcfbbe)
N           -1.74051573890586       -2.01210669691550        0.23281126358545
H           -1.23490196168816       -1.51490248348118        0.95855200892924
H           -1.07491377202371       -2.58141312523206       -0.27613018343523
H           -3.53810208253078       -2.18049627616174        0.98669611905740
C           -2.40763631975276       -1.07210320945293       -0.66755063615737
H           -1.79505356112050       -0.20188908068127       -0.93988590964545
C           -2.84608601983471       -1.79832101308890       -1.93991416574636
C           -3.66323131175201       -0.58194651672804        0.02604157828678
H           -3.45520592182107       -2.66154166090257       -1.68296622988926
H           -3.43762081400350       -1.12558622419659       -2.55215321805772
H           -1.97924561032634       -2.13230358551467       -2.50646939980111
O           -4.16752191724857       -1.43287269421714        0.93689573548321
N           -4.13090275484908        0.54346763202994       -0.28062709493163
H           -7.37958630047438        0.79779886389242        1.62804282261326
C           -5.40574907582057        0.99094912101164        0.22677048562067
H           -5.29250824172966        1.28005475399097        1.28363277123261
C           -5.79763144214292        2.21526146517545       -0.62256753265512
C           -6.47452337847020       -0.07358156249636        0.13571411615972
H           -4.93839882010730        2.88735157271709       -0.62092128107707
H           -5.93141236106930        1.85535912620406       -1.64368846930340
C           -7.04853153420455        2.98127675116753       -0.18164818754220
O           -7.52957523460975        0.06301675231238        1.02113502985417
H           -7.89685266485679        2.29090696919714       -0.11447446700756
C           -6.85144439006926        3.67198259857426        1.16796125144378
C           -7.39311508308924        4.02657044366584       -1.24203921857133
H           -6.03463722077774        4.38757624693552        1.10377911615391
H           -7.75385528596008        4.20888340278919        1.45245523871706
H           -6.61625026042470        2.96768385183158        1.96414710128274
H           -7.58349515519066        3.55003380868404       -2.20022460919750
H           -8.28167139415220        4.58364901217467       -0.95404070848082
H           -6.57101695673842        4.72826885180158       -1.36375239935765
N           -6.37347191803436       -0.98946108410440       -0.70608708175634
H           -8.82616284097038       -0.42976967858334       -0.13413812528483
C           -7.27015355802858       -2.09483332053591       -0.91480502108784
H           -6.75844121870736       -2.75030819443733       -1.62960938458210
C           -7.58871449515247       -2.89010895500033        0.35873080892443
C           -8.58948820129348       -1.67344005460310       -1.57806961725906
H           -8.17973333788463       -2.30255941623220        1.05785528875144
H           -8.14063901053039       -3.78944612404137        0.09718577328647
H           -6.65750059628584       -3.16942858287775        0.84628115894760
O           -9.28019793614653       -0.72482564229002       -0.94632133320625
O           -8.99049555644287       -2.17887206350937       -2.58766817129249
