42
 energy: -62.486133502754 gnorm: 0.000480492429 xtb: 6.7.1 (edcfbbe)
N           -2.90969344220398       -1.77954989836899        1.91003769982613
H           -1.98020795183006       -2.14166159755240        2.08318352248819
H           -3.54268700676477       -2.57459461528987        1.85245172393337
H           -4.23252428501540       -0.57715757483916        2.52693182612493
C           -2.95223148096949       -1.02018613648114        0.66224945218197
H           -2.10378005738985       -0.32413227877213        0.66772327807273
C           -2.89692024888700       -1.87331916555778       -0.60475903644255
C           -4.22220105930675       -0.18333959720272        0.69424489202785
H           -3.68552532311594       -2.62218111867329       -0.58328914017788
H           -3.04615204548637       -1.23830876591651       -1.47117586931205
H           -1.93540299128432       -2.37656104071106       -0.68356797071987
O           -4.77901091481028       -0.04541905624561        1.90972759511396
N           -4.66182982036486        0.34276051357172       -0.36246609622889
H           -8.27392933790316        1.43578567423215       -0.82089039872495
C           -5.91606480496064        1.05465807136948       -0.33138364550434
H           -5.98257614502622        1.67988272585301        0.57490934074556
C           -6.02402846411326        1.93517898267576       -1.59044695019762
C           -7.06440674350829        0.06722139694494       -0.22611251718368
H           -5.02488640512214        1.98933124923680       -2.02413842817186
H           -6.66120687467873        1.44336331853816       -2.33057996443012
C           -6.53065121671716        3.35955318053015       -1.32100128955273
O           -8.29903107573158        0.51311760048911       -0.53612293003513
H           -7.40019010510843        3.32503542962183       -0.64930290295234
C           -5.44772074446604        4.19783407768384       -0.64560774966970
C           -6.96495976739184        4.01872666044732       -2.62897843249757
H           -4.59424683542348        4.31133995130321       -1.30986383170818
H           -5.82801389448041        5.18686976873338       -0.40029865921186
H           -5.10323178808315        3.72671404331879        0.27162315203805
H           -7.77381873954167        3.46298440140315       -3.09953310800097
H           -7.30967249878992        5.03401381579870       -2.44726300719733
H           -6.12951584857029        4.05989927122271       -3.32381252692415
N           -6.83679745400029       -1.09948935705965        0.17969005517966
H           -5.68717003183856       -2.15272412921080        0.89730805791548
C           -7.83806907525705       -2.12014594540478        0.35915917890374
H           -8.67758116612024       -1.76156023472411        0.96827224164033
C           -8.37899333827311       -2.65186853025858       -0.97137599023829
C           -7.14172493404867       -3.27049572854094        1.10894910201088
H           -7.55219571345650       -2.94791319746786       -1.61419998245540
H           -9.00983526341034       -3.51553980218076       -0.78088589099616
H           -8.95929381602234       -1.88144634403608       -1.47216155593829
O           -5.84028184755275       -3.05880766212173        1.28158373017845
O           -7.70793073924919       -4.25989437345567        1.48010853981291
