42
 energy: -62.486133518057 gnorm: 0.000479201429 xtb: 6.7.1 (edcfbbe)
N           -1.14394688290986       -0.61535723495239       -1.39596312076202
H           -0.36465325008162       -1.24510573799344       -1.54188603350749
H           -0.76801488798608        0.25643536830489       -1.03247113157232
H           -2.66169921109918        0.02620496021408       -2.32280486909087
C           -2.10261780742999       -1.17602172324470       -0.44362068972693
H           -2.26309399898549       -2.22636388322852       -0.71829917359660
C           -1.67120903233097       -1.09846329818333        1.01831965708238
C           -3.42702608459968       -0.45766375372551       -0.66730289905509
H           -1.47458770547743       -0.06481046606072        1.29629995762015
H           -2.46999568977097       -1.47547736315846        1.64759774300855
H           -0.77097102944827       -1.68717619474985        1.18199472910514
O           -3.54072033404134        0.11124818905596       -1.89657407764899
N           -4.31205862739471       -0.50410660716507        0.21761577120582
H           -5.34338399928281       -0.84102005427758       -2.00399378131821
C           -5.58791755876707        0.17254388177104        0.18005701406816
H           -5.91650687651451        0.21101136077454        1.22313908188698
C           -5.54748603099103        1.60121722117220       -0.39667490053059
C           -6.60575594654135       -0.64600020745267       -0.58132618245903
H           -4.68984437594891        2.11494318435639        0.04476107832585
H           -5.38393374732546        1.54991735571214       -1.47532482392609
C           -6.82282403893971        2.40464216710876       -0.12097647696488
O           -6.22579804761974       -1.16201000675789       -1.76394478939119
H           -7.68800244556339        1.78160721145041       -0.36898708012980
C           -6.92562607000164        2.81890524477871        1.34460719185465
C           -6.84718309414557        3.64472995538556       -1.01368536679448
H           -6.08515250042073        3.45375938597228        1.61882094360574
H           -7.84426219812142        3.37562006348948        1.51174150113609
H           -6.93315268184379        1.95317207558144        2.00097426798003
H           -6.82904381858645        3.36605065040720       -2.06495804299126
H           -7.74834770363153        4.22454553069182       -0.83094336471116
H           -5.98498089837685        4.27695658687528       -0.81008758402281
N           -7.77824947492842       -0.73348651258933       -0.12765438042601
H           -9.08813312468929       -0.08684483940805        0.96436967682836
C           -8.82153394547826       -1.42160222358176       -0.85403927046252
H           -8.76242357587677       -1.23515599052039       -1.93435684738536
C           -8.77018891785134       -2.93359336401304       -0.61021458537022
C          -10.16427796579136       -0.89224858324370       -0.33046902086067
H           -8.78984731151356       -3.13786656153561        0.45833895806253
H           -9.63009416318272       -3.40266996247866       -1.08008033287474
H           -7.85642682378921       -3.34415677231452       -1.03257111133357
O          -10.05101016631506       -0.14992852067321        0.76503646008560
O          -11.21420922090026       -1.13840626596348       -0.85552901981206
