42
 energy: -62.486133512784 gnorm: 0.000479939411 xtb: 6.7.1 (edcfbbe)
N           -1.82101514223823       -2.22438447525416        0.81409138335028
H           -1.34964935567633       -2.25145721135974        1.70830443704794
H           -1.25800659026641       -2.72912074443441        0.14107132505385
H           -3.65203429967650       -2.45859902893135        0.84437485724672
C           -2.08558757721470       -0.85417446003341        0.36850185572450
H           -1.66404436573143       -0.11685925324436        1.05984956373002
C           -1.53708643865472       -0.58336522864836       -1.03131866582761
C           -3.60288408547173       -0.65614151546769        0.36365317919064
H           -1.92898523078224       -1.31400477697626       -1.73743999829732
H           -1.83848772616364        0.41081915352224       -1.34731938210492
H           -0.45041802077356       -0.64134706427159       -1.03311773319611
O           -4.31466539386521       -1.75383167262314        0.65588786591380
N           -4.05559621739227        0.49049884006504        0.11334367463659
H           -5.03806483188960       -0.79244647868997       -1.72155771742984
C           -5.46713032209315        0.79555806922845        0.03580936430570
H           -5.79862029768845        1.10782241306542        1.03150629893432
C           -5.62392768377648        1.97288528468466       -0.94507394694942
C           -6.34669996644201       -0.34928864539520       -0.40676391923359
H           -4.90994995099913        2.73979701801505       -0.64170034521815
H           -5.33483114278232        1.63237834982887       -1.94349486923541
C           -7.03401141110383        2.56761622740274       -1.00722170142590
O           -5.92268503635951       -1.07893054284320       -1.45890424405040
H           -7.74830063464945        1.76111741891524       -1.20246179406708
C           -7.42055383853971        3.24900547508464        0.30256891369474
C           -7.11049824025211        3.57115390539553       -2.15725394795979
H           -6.71607859301845        4.04409201687134        0.53826138633579
H           -8.41365799403836        3.68303851704220        0.21792955766286
H           -7.43450724240360        2.54043226061144        1.12573683339815
H           -6.88077279228913        3.09259922795446       -3.10671257481259
H           -8.10899405470590        3.99582524904801       -2.22317618163221
H           -6.40204781362212        4.38203403382119       -2.00051525187228
N           -7.48599133156221       -0.48266869341959        0.11315427472935
H           -8.86267671925615        0.22468853590823        1.05446956662094
C           -8.40693842155430       -1.50174466951692       -0.33769486332830
H           -8.40869232778492       -1.60078651023961       -1.43101872759176
C           -8.07259460063001       -2.86251140487944        0.28273395787205
C           -9.80924776577033       -1.08330202643996        0.12419088421609
H           -8.04771016382140       -2.77814083130433        1.36720045328673
H           -8.83042043587206       -3.58620846228868       -0.00355594959268
H           -7.09801578788678       -3.19422933850947       -0.06626153664579
O           -9.80429353856533       -0.05367067399576        0.96309157806972
O          -10.80981786878589       -1.64617416047614       -0.22423251826187
