42
 energy: -62.486133511991 gnorm: 0.000479584017 xtb: 6.7.1 (edcfbbe)
N           -0.94653872257120       -0.81267317287873        0.11433878219484
H           -0.08760367938333       -1.01274426706411       -0.38387335456949
H           -1.07374259026080       -1.54577343426403        0.80707718473593
H           -1.86331320686619        0.65261955630666        0.98409222453028
C           -2.08824762802902       -0.79693495042487       -0.80111476629665
H           -1.80366993258846       -0.18379614778448       -1.66570718529058
C           -2.54292886132843       -2.17062921765828       -1.28680651160047
C           -3.21976038757085       -0.05937167963378       -0.10221166336452
H           -2.76720732039162       -2.81204180672838       -0.43668407844095
H           -3.44730228557435       -2.05567187757661       -1.87425115099425
H           -1.76878349669554       -2.63980705267417       -1.89059735181181
O           -2.82845044999679        0.77428639170987        0.88589415444826
N           -4.40413872099004       -0.24426471897536       -0.47329458303300
H           -6.92142723795449       -0.12956417156482        2.00475594828131
C           -5.49356962053719        0.48028325885490        0.13056904667769
H           -5.26318096661380        0.74970454649619        1.17483757020150
C           -5.75681595846716        1.75792843221874       -0.68745947766185
C           -6.72037168435061       -0.39845410991851        0.08061310807527
H           -4.84906542251787        2.36446275343094       -0.67287403266795
H           -5.94118098951815        1.43172232554113       -1.71153322062378
C           -6.94302966010157        2.59004361791085       -0.18980982864836
O           -7.38653372210184       -0.57392965507455        1.28537145161011
H           -7.80847826605778        1.93123038335879       -0.05665112899153
C           -6.63520729000053        3.28226823619063        1.13695916048601
C           -7.30747595201258        3.63323079765873       -1.24422776246158
H           -5.78599363090221        3.95269621995953        1.02224117532280
H           -7.49187864564063        3.86711648293380        1.46413936381240
H           -6.39791381313534        2.56760943892700        1.92183197952064
H           -7.58265792238175        3.14985832464935       -2.17799077644471
H           -8.14920002680207        4.23459722002132       -0.90908512514990
H           -6.46418529817466        4.29464159381738       -1.43165799001100
N           -7.07625606433713       -0.90342621258502       -1.00237870409060
H           -9.05765081244979       -0.47825066490741        0.60166365650111
C           -8.19672719141459       -1.77269841987186       -1.24283435841563
H           -8.08141910802182       -2.11427531443475       -2.27797393289754
C           -8.26432641267832       -2.99475575091009       -0.31636451922743
C           -9.54025395276180       -1.02988187877417       -1.17548710105074
H           -8.43567512152449       -2.70328199677566        0.71762703763801
H           -9.07111269073003       -3.64892997414070       -0.63769179760972
H           -7.32358565061972       -3.53766754504774       -0.37180224524292
O           -9.78853440446775       -0.38041511547255       -0.03770416915749
O          -10.33079644278076       -1.04708655048591       -2.07500998087472
