42
 energy: -62.486133509151 gnorm: 0.000480397341 xtb: 6.7.1 (edcfbbe)
N           -1.87630962341089       -1.29109050363315       -0.53118065112448
H           -1.26056853351537       -2.08622256384630       -0.41050361878470
H           -1.35860388494228       -0.46088585272094       -0.25509073520120
H           -3.12704502406954       -0.57885315564427       -1.83310367507745
C           -3.07051505882955       -1.42770248795331        0.30387350088700
H           -3.47234263355508       -2.43483553362530        0.13114779116540
C           -2.83658226043230       -1.23257106064202        1.79881797221791
C           -4.11071011559523       -0.45753454085884       -0.23712144614199
H           -2.41406149544570       -0.24772607966993        1.98732028167694
H           -3.78417130054624       -1.30399678352837        2.32077395850511
H           -2.15500631850316       -1.99074205072534        2.17896725227710
O           -3.96227329707822       -0.15987478805732       -1.54334358439451
N           -5.02358278076054       -0.05420769043809        0.52341599191351
H           -7.72555977125315        1.24313886519988       -1.73476721370532
C           -6.09982369812678        0.81233105099352        0.09547007485873
H           -6.48714163781856        1.24358933266258        1.03042943047808
C           -5.70320095813187        1.95757325935443       -0.85089888447432
C           -7.20265019919646       -0.08410688173555       -0.44684977459206
H           -4.67364017125211        2.23619786881382       -0.61776004394340
H           -5.69755483853826        1.60110040767693       -1.88475954664228
C           -6.58895003844182        3.20687832261225       -0.70272560928753
O           -7.99718512175258        0.36505196151722       -1.43834202956613
H           -7.63124106676673        2.90987957817381       -0.52772623765046
C           -6.14120408380000        4.04261791293345        0.49514805466856
C           -6.53273341771837        4.04920459991746       -1.97695445181728
H           -5.13752848908814        4.42905578022744        0.33084179874302
H           -6.81242456851177        4.88528684831202        0.64437908011137
H           -6.13363445668312        3.44690823822653        1.40475189368032
H           -6.90057725575536        3.49337060912517       -2.83794355166548
H           -7.13939758053118        4.94516242874437       -1.86786869905784
H           -5.50843581338862        4.35318296265075       -2.18117651392976
N           -7.33524568671073       -1.21706217794961        0.08133144345774
H           -6.77747605104774       -2.34910576488460        1.33516337035936
C           -8.32252269897855       -2.18902919208934       -0.31495041112995
H           -9.33786530364883       -1.77588533669058       -0.25657429858341
C           -8.09251576825444       -2.73526773992155       -1.72788494616158
C           -8.20950468232975       -3.35246466706149        0.68749651739594
H           -7.06815271625095       -3.09023847277512       -1.82374785108265
H           -8.77397517909280       -3.56261305778473       -1.90463276655214
H           -8.26843049416918       -1.95599532506640       -2.46452751576775
O           -7.20319147395330       -3.21942938801361        1.54033915281538
O           -8.95265576871213       -4.29511494097822        0.67970207802915
