42
 energy: -62.486133504305 gnorm: 0.000480953589 xtb: 6.7.1 (edcfbbe)
N           -1.63391354345943       -1.32999249176002       -0.33506123718407
H           -1.10313287945398       -2.19047911754972       -0.28195045815727
H           -1.04358206495888       -0.58191721070680        0.01808877180179
H           -2.72405276939127       -0.41386224443862       -1.58197690964775
C           -2.85712232877401       -1.41811423382394        0.46280524797360
H           -3.31512199178516       -2.39305113035210        0.25405615100078
C           -2.64769811741331       -1.27685808047421        1.96769128684218
C           -3.82929044080367       -0.36723912438019       -0.07248923722600
H           -2.16635547559292       -0.32695586309445        2.19265386303239
H           -3.61122223496345       -1.29967543941656        2.46413476992267
H           -2.02680310035377       -2.08717547832082        2.34408300224653
O           -3.55729095062321        0.03569035648850       -1.32532318975397
N           -4.78330578135473       -0.02158240810177        0.66375769222832
H           -8.15794304881658        1.54432074692049        0.93526209372976
C           -5.85704224126344        0.88665820416915        0.35944776206010
H           -5.93047710533892        1.54171697459552        1.24030159873227
C           -5.70545181487145        1.74389053245162       -0.91358829422040
C           -7.12088299079609        0.05530999407261        0.28910205220947
H           -4.72910384813399        2.23014479301199       -0.87064559543978
H           -5.70136558920258        1.06943074099182       -1.77059760387585
C           -6.78207402068488        2.81471396066783       -1.12529120291385
O           -8.29207162671059        0.63877697743845        0.63014146815435
H           -7.77099010844196        2.34301582443977       -1.12984437037849
C           -6.74213075431536        3.89795410752599       -0.04710190051942
C           -6.57531776948765        3.45893340403500       -2.49640175044141
H           -5.77015372500467        4.38692800485754       -0.04595929611494
H           -7.50161974724112        4.65183615985369       -0.24352578535689
H           -6.91762665063201        3.50005474859926        0.95096397210680
H           -6.63728283125012        2.71242351671332       -3.28433299804882
H           -7.33391920101895        4.21630990978362       -2.68086821590925
H           -5.59726551290200        3.93208003812724       -2.54905429957295
N           -7.03242797998876       -1.14701891091687       -0.06440444398762
H           -5.96400369890206       -2.55170628240833       -0.16363847739277
C           -8.15878880019761       -2.04141572070482       -0.15065231486651
H           -8.83739292192833       -1.93192735361342        0.70536731105545
C           -8.95432030161013       -1.83385770535620       -1.44312405719069
C           -7.58209493920346       -3.46825516787451       -0.14349569258562
H           -8.28487283513616       -1.87402537824908       -2.29997844897056
H           -9.69820446814794       -2.62018385630973       -1.53502623994690
H           -9.44961934510091       -0.86625831437930       -1.42422727253001
O           -6.25502555061968       -3.49825369784063       -0.17239156682145
O           -8.26783015309894       -4.45240950663725       -0.12797123654402
