42
 energy: -62.486133507759 gnorm: 0.000480697322 xtb: 6.7.1 (edcfbbe)
N           -0.83974025247147       -0.09684743136503       -0.94934812499200
H           -0.13371851322701       -0.47678937101289       -1.56774294236038
H           -0.49336664880695       -0.18354161480572        0.00216904548280
H           -1.96103280690370        1.45471532692489       -0.82492069347009
C           -2.10287137146227       -0.81993709600110       -1.08796208017381
H           -2.30553269893007       -0.91706698469633       -2.16254678490962
C           -2.12106203129035       -2.20688249641284       -0.44981584399828
C           -3.20141754372325        0.07960737796054       -0.52995305741785
H           -1.90998131830889       -2.13394614688648        0.61558486325317
H           -3.10258158697102       -2.64997400017756       -0.57946215064787
H           -1.37451498161132       -2.84772164523301       -0.91465207473943
O           -2.89104427732903        1.38636905222935       -0.52449519060282
N           -4.27143096682497       -0.44774473653601       -0.13984296767292
H           -5.44809374410992       -1.86174645377178        1.41022005007769
C           -5.43997761274386        0.25676008171038        0.35337015320080
H           -5.27779169183743        0.49303494899189        1.41540689901445
C           -5.81157273562893        1.53319413063217       -0.40841459669498
C           -6.52218874382824       -0.80186702034230        0.25615002812145
H           -4.95192002728006        2.20252597072872       -0.40990984122047
H           -6.02224978191967        1.24789775860761       -1.44029349587963
C           -7.01726365277788        2.27454122634451        0.18048744788691
O           -6.34189786223815       -1.88251184689434        1.04363094360461
H           -7.80906824304559        1.55001672785462        0.39123639245756
C           -6.64968954978863        2.99252476553166        1.47769323868340
C           -7.54236422244939        3.28373113418805       -0.83919836748395
H           -5.84608902968868        3.70478943650903        1.30180614567596
H           -7.50884954018085        3.53522748806574        1.86514917531170
H           -6.32545472202268        2.29093885450802        2.24247296029514
H           -7.86509191276476        2.78319856371760       -1.74873382444231
H           -8.38971007776976        3.83044593061295       -0.43212578743702
H           -6.76505128244266        3.99999436861293       -1.09701350287285
N           -7.44435598937712       -0.70961986596088       -0.59284890005335
H           -8.20137395590379        0.15411805285269       -1.97674764763941
C           -8.43614210261626       -1.74319441342626       -0.77514108510021
H           -7.97899923803140       -2.73856093903870       -0.84063125319098
C           -9.47171685910373       -1.74879715218512        0.35493489511975
C           -9.16258536085110       -1.43532727429179       -2.09390352544653
H           -9.90880969925547       -0.75797015356476        0.46397134810384
H          -10.25826626666948       -2.45936717024920        0.11742526186014
H           -8.99651013546746       -2.03294538511447        1.29037948880801
O           -8.87641366419270       -0.23518500349107       -2.58338694499955
O           -9.92839855969859       -2.19811283980293       -2.61406257655209
