42
 energy: -62.486133506946 gnorm: 0.000480516122 xtb: 6.7.1 (edcfbbe)
N           -2.15354340258853       -1.01283083647590       -2.38581166195559
H           -1.47732266533723       -1.68343808147862       -2.72938038231517
H           -1.73719810873689       -0.08888442602503       -2.46226627272141
H           -4.01920984089383       -0.57821922460949       -2.59264666649199
C           -2.50764998973350       -1.28612843744077       -0.99500379338636
H           -2.70856802330156       -2.36265064195191       -0.91566560836502
C           -1.44046846467589       -0.89658662595800        0.02566320713647
C           -3.83044491050802       -0.58085163467214       -0.72216430348167
H           -1.19657929971441        0.15945928334794       -0.07332921194906
H           -1.82032638149367       -1.06657384152564        1.02732516066834
H           -0.53731209304367       -1.48496001953607       -0.12406566166781
O           -4.55095989423721       -0.30183039601364       -1.81716660800443
N           -4.16714874603676       -0.35240126222577        0.46969120398260
H           -5.84876310054232       -1.75712210327071        2.02460709961520
C           -5.43985623960835        0.26852682487113        0.81005349142043
H           -5.39255309136717        0.42318520557371        1.89780237321653
C           -5.70230010753318        1.60862296223327        0.12010307324954
C           -6.50041489455839       -0.76781370939231        0.51746882829456
H           -4.81026681318841        2.22893492604861        0.23329481358312
H           -5.85986585309618        1.42242884813517       -0.94051702432197
C           -6.92069553912389        2.34348228350252        0.69020266058584
O           -6.55588026008214       -1.81743785865764        1.37027495933759
H           -7.72668702803624        1.61572104656493        0.82683100476192
C           -6.60795897560185        2.99748017845068        2.03449216623180
C           -7.39351449059372        3.40199014044042       -0.30424374317784
H           -5.82053207341733        3.73981721869574        1.91887875702522
H           -7.49152031166856        3.49583100334064        2.42690527766990
H           -6.28191304047380        2.26466831718002        2.76852182988730
H           -7.68048263265274        2.94025441282635       -1.24554528434997
H           -8.25277560275744        3.93939998858826        0.09036135603068
H           -6.60010926403655        4.12061532229885       -0.49932277312261
N           -7.22018484540718       -0.66421221250288       -0.50671623212032
H           -6.88501235181217       -0.37789873420879       -2.29548960224724
C           -8.18089433485962       -1.66417285003250       -0.89632610025646
H           -7.95903080787967       -2.65554037824560       -0.47793139082778
C           -9.59083088857059       -1.24363188880804       -0.47116675740441
C           -8.13862899023123       -1.76777874976151       -2.42966822300578
H           -9.79699061209399       -0.23605013133771       -0.82575029751721
H          -10.31445873561040       -1.93001746616858       -0.90171753830361
H           -9.67447731038936       -1.26153332259769        0.61293974648977
O           -7.31954454859386       -0.90017658221834       -3.01007258080344
O           -8.79331666691813       -2.56370220585065       -3.04451401492218
