42
 energy: -62.486133506472 gnorm: 0.000480080398 xtb: 6.7.1 (edcfbbe)
N           -1.46794808228000       -2.06670427123709        0.42562625674445
H           -1.66133921115664       -2.30140072749197        1.39380608232658
H           -0.46978027237540       -2.15666375193189        0.27752627464844
H           -3.08355255083730       -2.58107056557401       -0.45370362054832
C           -1.91786643346926       -0.70850024533741        0.12485152460531
H           -1.70004161657660        0.02069201564894        0.91637563088413
C           -1.28389893736377       -0.23244989364774       -1.18289701547224
C           -3.42695109552136       -0.77053486212765       -0.06642258122167
H           -1.49095677069650       -0.94232433175187       -1.98128374717093
H           -1.69255962742407        0.73648657541874       -1.45354365869832
H           -0.20592500277540       -0.14025167385150       -1.06983331893843
O           -3.85731316365957       -1.98091815907956       -0.50818426142426
N           -4.09870473987784        0.25918611762399        0.14486336007464
H           -5.40063022792643       -1.52228737197409       -1.43472767241908
C           -5.50120845084009        0.54090524640360        0.04110754666175
H           -5.76815298087641        0.98530869375845        1.00550913982189
C           -5.64552781815884        1.62455465790334       -1.05550389937248
C           -6.52960567689502       -0.53595474917039       -0.24524129581533
H           -4.84382866670128        2.34817327168660       -0.89784688448586
H           -5.47998352097509        1.14891206876071       -2.02642552384888
C           -6.99443174976789        2.34953508050580       -1.07212690094160
O           -6.34386680279914       -1.42164390276305       -1.23289370123035
H           -7.79678793424710        1.60632272516188       -1.10989627629499
C           -7.18947970840094        3.21229539905159        0.17146887336629
C           -7.08350626473903        3.21862278804286       -2.32614312797348
H           -6.40184022358478        3.95977774563416        0.24087975726703
H           -8.14716156204130        3.72418985260972        0.12313571404134
H           -7.17747389213091        2.61068508022895        1.07579111268591
H           -6.99000317031201        2.61390474384163       -3.22544201168000
H           -8.03988855260226        3.73409490097834       -2.36068166899315
H           -6.29109912629682        3.96440591694503       -2.32857906979298
N           -7.61510809595935       -0.44707988804994        0.39669805672320
H           -8.75545725092817        0.58530687356721        1.33295957296302
C           -8.73016095855591       -1.32790267729169        0.12861790835813
H           -8.86614307408250       -1.50283015029515       -0.94653263615076
C           -8.56277746513489       -2.67923886610180        0.83117702188082
C           -9.99088565856819       -0.64182333264037        0.67556574391319
H           -8.37533436774041       -2.52405442095961        1.89182400073797
H           -9.47203191877305       -3.26123687173271        0.71052868370994
H           -7.72515668502409       -3.22044650342436        0.39807710399213
O           -9.73422456840023        0.46130853930946        1.36842979184208
O          -11.09759738485132       -1.07137678471399        0.50202452473293
