42
 energy: -62.486133517309 gnorm: 0.000479416494 xtb: 6.7.1 (edcfbbe)
N           -2.17039031372656       -1.31941134753093       -2.16493510127467
H           -1.50134403958724       -2.04958501297537       -2.37395597085743
H           -1.75568056137430       -0.43258712558890       -2.43685033582638
H           -4.01146749486151       -0.94438082989396       -2.44209330222003
C           -2.50621494358801       -1.29875853919210       -0.74320170471385
H           -2.67401115933902       -2.33720784212638       -0.43061732318936
C           -1.44322640585583       -0.66881852499495        0.15398809791623
C           -3.84942501811370       -0.58819442029214       -0.60599223554442
H           -1.23854153464691        0.34998435871960       -0.16864609290769
H           -1.80765181458221       -0.63713223285496        1.17470243657916
H           -0.52102934613728       -1.24505235896584        0.11553021663148
O           -4.55892381300813       -0.52601965038732       -1.74240729881270
N           -4.18549775558098       -0.14657258001312        0.52229217288726
H           -6.42865477324306       -0.88370084062266        2.56821956572504
C           -5.46310487185196        0.48213790251288        0.80055359416642
H           -5.39052513117065        0.80053526437248        1.85000854065623
C           -5.75298689936663        1.70099429524822       -0.08488614868386
C           -6.55661099463339       -0.55599034547759        0.67508454271724
H           -4.88665449707440        2.36501150553994       -0.04715783801777
H           -5.87308412984599        1.34457205448776       -1.10692318898983
C           -7.01304459913797        2.46620823395466        0.33253671584070
O           -6.95180370555677       -1.17715146040075        1.81224832176147
H           -7.82408867829443        1.74372819985432        0.47502717277699
C           -6.80737254632326        3.24131978054635        1.63258662095817
C           -7.41735967268867        3.42725073317004       -0.78382283612043
H           -5.98442936686350        3.94509913227445        1.52653250662312
H           -7.70560805526479        3.80142235596353        1.88261084324664
H           -6.58548268595056        2.57768865524872        2.46455763180563
H           -7.61378719198827        2.88334452868516       -1.70429241578548
H           -8.31648642800352        3.97452211873600       -0.51006041715361
H           -6.62225479733641        4.14598786638043       -0.97078233145307
N           -7.01550085467000       -0.84970016982825       -0.45707346330679
H           -6.51500586999715       -1.09433918097387       -2.22447837911138
C           -8.01504083368711       -1.86968317818678       -0.64886676878466
H           -7.88782744398492       -2.71364604070612        0.04295206310666
C           -9.42506585118831       -1.29643614999630       -0.47512194831590
C           -7.86610932295262       -2.39728594478611       -2.08434366646124
H           -9.54334662704493       -0.41239454549097       -1.09778143469927
H          -10.15424135424154       -2.04404573027445       -0.77418693950207
H           -9.59054319788191       -1.02364902639326        0.56450458980858
O           -6.94124329150851       -1.77434731062162       -2.80042201462782
O           -8.53552335695889       -3.29574229889072       -2.51610102087081
