42
 energy: -62.486133526140 gnorm: 0.000477953476 xtb: 6.7.1 (edcfbbe)
N           -2.47362862209197       -1.94787282645314        1.62661492845872
H           -2.51704750364734       -1.53382814479351        2.55186300918939
H           -1.57835535570598       -2.41227872840956        1.53155716812446
H           -4.30129007474195       -2.32690623393838        1.29390491701986
C           -2.65040742776583       -0.93201524805100        0.59209070797533
H           -2.13112317038617        0.01289936882946        0.80145467103367
C           -2.17278395165609       -1.47572096506156       -0.75454617123171
C           -4.14761213772382       -0.64461639075921        0.49315895925415
H           -2.68822777761653       -2.40517868592655       -0.98614503222797
H           -2.38283917240768       -0.74948012709025       -1.53368811197047
H           -1.10184756464181       -1.66596712205611       -0.72946111423437
O           -4.91624851496139       -1.65915041146196        0.91634192393432
N           -4.48569083416227        0.46786437033761        0.02758608472971
H           -7.00374424923829        0.69298746086975       -2.35127344239622
C           -5.79755284898652        1.02429170552389       -0.20595400516574
H           -6.10204647999651        1.47916049089022        0.74785757192142
C           -5.61378259836930        2.14337183125216       -1.24076368600236
C           -6.89550158987083        0.02831516806708       -0.54726317556694
H           -4.71988274949013        2.69399030451428       -0.94427090476805
H           -5.38675414808812        1.70543081820688       -2.21890117886794
C           -6.79804871486567        3.11659280710386       -1.34036451916346
O           -7.40144998335993        0.00628826564104       -1.80150280553882
H           -7.74059132267593        2.55638135526836       -1.34274248501391
C           -6.82320524970114        4.06899579748816       -0.14695787562519
C           -6.70695891842746        3.91639482419531       -2.63970738709546
H           -5.90936942237810        4.65829468009073       -0.11379328484690
H           -7.66801982711101        4.74930423056626       -0.22499020510497
H           -6.91540457726011        3.52365288970661        0.78866495377769
H           -6.74349467854483        3.26390688644297       -3.51032043157275
H           -7.53215329665635        4.62074712484766       -2.71084737102596
H           -5.77514122371450        4.47688143316138       -2.67170077836768
N           -7.26515031821897       -0.77095763202889        0.34794495113817
H           -6.82309626871027       -1.66533008636555        1.90928428570602
C           -8.25907474363475       -1.79637659833723        0.15302576834952
H           -9.21097882990034       -1.37288484318924       -0.18949051494096
C           -7.81025517859319       -2.88085070372041       -0.83469665480168
C           -8.46487241584865       -2.46843463648017        1.51865857950389
H           -6.84044632866201       -3.27085644731753       -0.53219404506040
H           -8.53743194078539       -3.68832657743823       -0.83829891513637
H           -7.72905300534795       -2.46319651337626       -1.83464200097742
O           -7.46111343249356       -2.26739441398819        2.36095209568919
O           -9.42451474298871       -3.14015453666972        1.78249097770226
