42
 energy: -62.486133520912 gnorm: 0.000478809357 xtb: 6.7.1 (edcfbbe)
N           -0.70304135171444       -0.08260130630735       -0.33932501595151
H            0.10160969818379       -0.41568714480337       -0.85540037221302
H           -0.51946276206351       -0.23572285296426        0.64841990738689
H           -1.81206114772441        1.44220894381284       -0.21652395600803
C           -1.91735750136383       -0.79325489259897       -0.73548141894041
H           -1.91664501908504       -0.85704837806875       -1.83135645810583
C           -2.04132491788211       -2.19793725230540       -0.14701947743267
C           -3.10260577084955        0.09179541668493       -0.35057699472262
H           -2.05947498558558       -2.14692641411322        0.93973056614222
H           -2.96081392559570       -2.66640733418268       -0.48087177215013
H           -1.19812789633790       -2.81166983494127       -0.45820514439064
O           -2.78603316657028        1.37153040744487       -0.12057184233335
N           -4.24074491374385       -0.43459286438433       -0.26495130189075
H           -5.16481812628978       -1.65300012850124       -1.26293085046727
C           -5.49452779867771        0.23729876589793       -0.00155810020634
H           -5.60350172640057        0.38506795402170        1.07731195390443
C           -5.62855364332132        1.59549659161609       -0.72056276764149
C           -6.57043212247197       -0.72514581047370       -0.48210122055251
H           -4.82573723232553        2.24070357483312       -0.36293554388298
H           -5.46947767197677        1.42370217481751       -1.78929386767401
C           -6.96171092281046        2.32196862701585       -0.52566016520967
O           -6.14405277281472       -1.72057039433988       -1.26747738421890
H           -7.76643605007786        1.69863211979776       -0.92355545454868
C           -7.24338809119708        2.60900963760123        0.94665263554856
C           -6.93518239266571        3.63054720152295       -1.31489507492861
H           -6.43763960051334        3.19985830006372        1.37828626511324
H           -8.17041072529997        3.16797984120580        1.04702287658565
H           -7.34108485941176        1.68674969716171        1.51266199070741
H           -6.74965022671556        3.44290210024846       -2.37002545937639
H           -7.88831270469161        4.14499516214760       -1.22252209480976
H           -6.15238305754856        4.28691383458164       -0.93978217129810
N           -7.77184283895764       -0.55292672321522       -0.13764648207361
H           -9.10421323848806        0.50740402194241        0.53703569816723
C           -8.81685229261683       -1.44087414006641       -0.60067337943011
H           -8.70709410556412       -1.68282990277366       -1.66543582933490
C           -8.84183583462820       -2.74707206951947        0.20146787351231
C          -10.15718642492378       -0.72323206104681       -0.39140056865401
H           -8.90979599288891       -2.52739322210205        1.26516156376841
H           -9.70438631485038       -3.33606367429106       -0.09704953773069
H           -7.93307221923824       -3.31303049577003        0.01313028136864
O          -10.06083021304737        0.38302359973725        0.33646948360811
O          -11.19569839848462       -1.13582694032352       -0.82862637692306
