42
 energy: -62.486133507425 gnorm: 0.000480759273 xtb: 6.7.1 (edcfbbe)
N           -3.11654568154682       -1.63000595131887        1.84323656812744
H           -2.24827325443678       -1.90213379135710        2.28606990077324
H           -3.71623937209032       -2.44553923083455        1.77774485656843
H           -4.50865331864154       -2.35944857574958       -0.67161374728204
C           -2.87285226091195       -1.01262931463673        0.55057783260834
H           -2.30676730785383       -0.09530445391870        0.73844658452026
C           -2.09821841132353       -1.89792208710617       -0.44191553729026
C           -4.22219976524581       -0.58028512223547        0.00802488283685
H           -2.54391121107162       -2.89023781447356       -0.53058718631199
H           -2.06558260808027       -1.43439473958558       -1.42546402918248
H           -1.07708159832799       -2.02946200353856       -0.09096591257512
O           -4.94563637412968       -1.49841786090447       -0.67813248235870
N           -4.58738182561065        0.59601468712443        0.24130915370304
H           -7.60330802595700        0.90280440247752       -1.84892952594828
C           -5.87149065640825        1.16682753215713       -0.09301915044791
H           -6.10042264694861        1.81990982674932        0.76050160092597
C           -5.69674571512784        2.04260708720733       -1.34549861556319
C           -7.00744750692228        0.15414510072375       -0.18436786140823
H           -4.68577372409388        2.45292410220109       -1.30133761570634
H           -5.73382861533906        1.41060168872059       -2.23952541266184
C           -6.69637763245542        3.20705903958438       -1.44690759960733
O           -7.87085927046421        0.22522574145037       -1.21566583810628
H           -7.68598156800305        2.88262962492132       -1.10212397738337
C           -6.25381707616446        4.36925114415293       -0.56032569111389
C           -6.81630409698847        3.67454064120951       -2.89740426952555
H           -5.30766633676917        4.77348307277296       -0.91327606934787
H           -6.99515666636272        5.16476906571072       -0.57802970886439
H           -6.12395591440337        4.04590406105347        0.46923913447672
H           -7.19064951113872        2.88133850947426       -3.54278340195714
H           -7.49880772181889        4.51796595125764       -2.96903593374253
H           -5.84471768194341        3.98918425110506       -3.27218664599923
N           -7.08755646516674       -0.68426418894590        0.75016446075265
H           -5.99212576771894       -1.53341328113801        1.90684663486613
C           -8.00647529390809       -1.78678388075424        0.85700414691866
H           -8.83555047549311       -1.47488652553845        1.50856259646020
C           -8.57296707370041       -2.37696365177579       -0.43441559009825
C           -7.25024482262728       -2.88981549061104        1.62704244666238
H           -7.76750685036248       -2.54411688724850       -1.14618331756359
H           -9.04049843619434       -3.32991324835151       -0.19957329030237
H           -9.30554695478304       -1.71256041975892       -0.88177534275270
O           -6.09775307258330       -2.48710446535551        2.14885565334387
O           -7.65731268541493       -4.01360827246612        1.73635256604488
