42
 energy: -62.486132277914 gnorm: 0.000625922961 xtb: 6.7.1 (edcfbbe)
N           -1.56725115214798       -1.19284266282822        1.15818075449021
H           -0.61031936387680       -1.48911161749609        1.01149086870215
H           -2.04812309296114       -1.94184264073713        1.64842568580825
H           -2.59547096063190        0.29119662884187        1.81406238664796
C           -2.23526883285123       -0.92707724118164       -0.11448563143575
H           -1.55836578296814       -0.30566461373952       -0.71478214855846
C           -2.61243421756245       -2.17585823902516       -0.90864416194095
C           -3.46026239957816       -0.07712043578558        0.19339959485598
H           -3.27063553704245       -2.80900114317283       -0.31739500547864
H           -3.13983249187957       -1.88519012996582       -1.81039783105237
H           -1.72185754338996       -2.74092027952684       -1.17689084918030
O           -3.41564087412772        0.57762804969891        1.36378867977983
N           -4.40209342474519       -0.02055474692670       -0.63841349275407
H           -6.25812560316201       -0.04926466204635       -2.51056825264625
C           -5.58258104573410        0.77899427362658       -0.36523725229656
H           -5.64062136389768        1.05497652650384        0.69383992072786
C           -5.57561138710018        2.04286780664104       -1.23489465048702
C           -6.73777306108256       -0.14349451629934       -0.67630174656047
H           -4.78893326908206        2.69924878617897       -0.85681689082446
H           -5.30104339162408        1.77604487894813       -2.26063445984728
C           -6.91160557953308        2.79540761690924       -1.23955666216854
O           -6.94913177772193       -0.45071732621312       -1.96819444874797
H           -7.69081460722154        2.13570841902535       -1.63817780295270
C           -7.32066727019530        3.22347187843859        0.16767085839085
C           -6.80234847916342        4.01611434034208       -2.15209087205369
H           -6.52478498138078        3.79794080230360        0.63669119001016
H           -8.21225006267035        3.84455125720290        0.12438935159234
H           -7.54130446668304        2.35957281192319        0.78880583416068
H           -6.52196623163592        3.72414103721310       -3.16203048552717
H           -7.75378928232056        4.53993042183107       -2.20054176269317
H           -6.05089774132329        4.70529342305064       -1.77268936223676
N           -7.37471992174751       -0.66667764114906        0.27612472326496
H           -7.85957981653420       -0.67434460571494        2.02129746704039
C           -8.43565005619209       -1.62368754451020        0.04726666768615
H           -9.10822791987984       -1.30079187933014       -0.75711248373338
C           -7.88408659766191       -3.01133005744140       -0.29810675411453
C           -9.24006301691628       -1.73164540200693        1.35105734298598
H           -7.18363485772134       -3.33270104329670        0.47011832016085
H           -8.70574032173582       -3.71995449196062       -0.35055317786206
H           -7.37034947353491       -2.97824183350761       -1.25534213269527
O           -8.67285040126880       -1.10553628534226        2.37537551565594
O          -10.26948359611465       -2.34154373140331        1.43680821497885
