42
 energy: -62.486133506416 gnorm: 0.000480361698 xtb: 6.7.1 (edcfbbe)
N           -0.98765919786252       -1.12715888074451        0.11413427684836
H           -0.16700422318567       -0.54449540054884        0.01721930194793
H           -0.70406143056551       -2.09350932035642        0.00701661051498
H           -2.19752789708586       -0.70878246028581        1.41988205620119
C           -2.03221711468097       -0.77319994922021       -0.85257883847309
H           -1.69757861650756        0.00786949008689       -1.54277774568644
C           -2.50437606615058       -1.97849393231510       -1.66292965013299
C           -3.21243062159057       -0.21710527027678       -0.06495456988559
H           -2.84688758723318       -2.76804378418190       -0.99721828703057
H           -3.33071329245339       -1.67882779258717       -2.29919385523936
H           -1.69624489105686       -2.36198412932935       -2.28270005962975
O           -3.10273577384811       -0.34119816590201        1.27808668641085
N           -4.19567206251653        0.26807915031497       -0.67568106968184
H           -5.06230590524111       -0.91979558908981        1.71048332315172
C           -5.33275412129450        0.79699786590758        0.05939233177505
H           -5.01813009223603        1.19807637073660        1.03468132833375
C           -5.97100875970715        1.89143200591285       -0.79634283208912
C           -6.24192656565072       -0.38733420027685        0.29255523774394
H           -5.22533190601826        2.67584552198948       -0.94078260777345
H           -6.18665374102645        1.45348820260930       -1.77041853032934
C           -7.24780713028268        2.50068079321742       -0.21029874919056
O           -5.90780366067737       -1.19399280241666        1.32268368677767
H           -7.96296609889592        1.69395875878260       -0.02630447398586
C           -6.98012483922975        3.22729062933666        1.10640224690282
C           -7.85679159628402        3.46709218214721       -1.22463733143978
H           -6.20696596697965        3.98198426068657        0.97534932185847
H           -7.88475712030657        3.72231503245453        1.45244883016150
H           -6.66184505591398        2.53552913773428        1.88230504511625
H           -8.07114709598206        2.95728052056289       -2.16048271831444
H           -8.78466744161963        3.88629055260078       -0.84284948953621
H           -7.16970195757832        4.28581741463481       -1.42837089004452
N           -7.19132767385594       -0.63175898906760       -0.49526782837809
H           -7.97133828529219       -0.36195788452150       -2.09911709630836
C           -8.02426328836222       -1.80237859728988       -0.35572642540078
H           -7.44098821082543       -2.69568475490896       -0.09786066594212
C           -9.10937404985040       -1.59677276138680        0.70717788450228
C           -8.71118864264692       -2.02695542410970       -1.71154615640116
H           -9.68107197784235       -0.69749371253340        0.48601144970492
H           -9.77875393639429       -2.45236302625339        0.70727008200715
H           -8.65170138919814       -1.49444829453533        1.68807545604143
O           -8.55671882636414       -1.01385782704954       -2.55417272471906
O           -9.34166714346573       -3.01446075426430       -1.97002742308814
