42
 energy: -62.486133511548 gnorm: 0.000480004664 xtb: 6.7.1 (edcfbbe)
N           -2.39500295489912       -1.93346246898032        1.49978649560517
H           -2.36879892010035       -1.46897146653873        2.40125608328733
H           -1.51889514735415       -2.42642104919634        1.37526910212256
H           -4.26236147050674       -2.27374278711272        1.28822180162498
C           -2.60914703081647       -0.96828745726507        0.42476682434773
H           -2.04091388742514       -0.03559452640156        0.54093797681874
C           -2.25489046057368       -1.60582281734899       -0.91904209075362
C           -4.09672941498287       -0.62737242029809        0.41576320894073
H           -2.82737207149459       -2.51984078995642       -1.06132094236466
H           -2.48677932510645       -0.91306387113356       -1.72206999278168
H           -1.19466579238360       -1.84769533307700       -0.95783635704493
O           -4.87318757906952       -1.59785796875885        0.92126987994154
N           -4.43002304287892        0.48463876931590       -0.05627367165362
H           -6.90297430669150        0.54779867898177       -2.35850989813690
C           -5.75089776700459        1.04794363226833       -0.22635612354039
H           -6.00807681311528        1.51032133417059        0.73690987969955
C           -5.61981087904989        2.15379414099651       -1.28204271094922
C           -6.85471678044695        0.04073896635880       -0.50352809485879
H           -4.74756315250920        2.74665914447880       -1.00285314826011
H           -5.38142199211367        1.70706152073672       -2.25357053356534
C           -6.84296627391326        3.07440577514133       -1.39779297862997
O           -7.32790436981436       -0.08340892011955       -1.76411196845793
H           -7.75745745322680        2.47198856317508       -1.44947793215566
C           -6.95582268517792        3.99622066174460       -0.18554552314073
C           -6.74052465367526        3.90796432316669       -2.67502649982119
H           -6.06058354525448        4.60665321099667       -0.08910121602717
H           -7.81210705505323        4.65760556388585       -0.29503571001779
H           -7.08652828746261        3.42675196969570        0.73082275992858
H           -6.70947190597397        3.27389661946508       -3.55922483534776
H           -7.59639980464577        4.57235842047476       -2.76514201768586
H           -5.83728456751250        4.51394953346002       -2.65706164817646
N           -7.24830356611317       -0.67733689090736        0.44864247718391
H           -6.79577163507303       -1.44700212492042        2.05732413456657
C           -8.23629680772683       -1.71985717532512        0.32574208811734
H           -9.19655410557104       -1.31937029662268       -0.02097859010482
C           -7.80283006061928       -2.85812104904910       -0.60705356187071
C           -8.41488310560687       -2.31673500813765        1.73009394282033
H           -6.82102468460611       -3.21965937420251       -0.30799948583414
H           -8.52105237817938       -3.67058931860013       -0.53873069086317
H           -7.75400202433070       -2.50413090129088       -1.63309124780529
O           -7.41099572463221       -2.03954631765385        2.55114779693126
O           -9.35319771791681       -2.99888645736588        2.03975834852593
