42
 energy: -62.486133475837 gnorm: 0.000483247513 xtb: 6.7.1 (edcfbbe)
N           -0.72953200213458       -0.12504563940862       -0.69979644731844
H            0.02791907966239       -0.59983184964368       -1.17511994559631
H           -0.44855234534160        0.00989042564806        0.26766081094167
H           -1.85526445561947        1.37598198401245       -0.91071558748877
C           -1.96208404481464       -0.90840633929586       -0.75462571659763
H           -2.07108986776130       -1.27166822501504       -1.78504942486539
C           -1.99618359162271       -2.09505879529660        0.20693544115726
C           -3.12276538415836        0.05806735525463       -0.50683753553834
H           -1.88201459992002       -1.74724631736598        1.23166211221825
H           -2.94568087482984       -2.61353555529381        0.12874721520668
H           -1.19085094331638       -2.79010101647287       -0.02252630877766
O           -2.81095442701155        1.34642556934803       -0.69005594526415
N           -4.22622466941768       -0.42619575502313       -0.15091301436602
H           -5.11447017111963       -1.70624334105587       -1.14815132692300
C           -5.49034153436001        0.24477257418117        0.04780717026409
H           -5.63266453530259        0.35513792381484        1.12829039666249
C           -5.61981952162487        1.62320694333450       -0.62819369153669
C           -6.54625975599160       -0.72375378074198       -0.46970052063624
H           -4.83474441851341        2.26433471366325       -0.22595276299269
H           -5.42733328115007        1.49382576025323       -1.69684744414480
C           -6.96503173334016        2.33143329082639       -0.44886734433095
O           -6.09135585611411       -1.74709949022215       -1.20547773288137
H           -7.74906579785420        1.72197125798691       -0.90479510562184
C           -7.30276347267322        2.55018756022057        1.02352444960158
C           -6.92037879182114        3.67462680114160       -1.17680113822215
H           -6.51817359770090        3.12635531980483        1.51060188968871
H           -8.23677985317685        3.09908685374362        1.11453612335898
H           -7.41371684688557        1.60301879406745        1.54425708447954
H           -6.69332151407730        3.53597460300495       -2.23130468445046
H           -7.88065836617099        4.17797426986922       -1.09768455448892
H           -6.15765939864062        4.31872218368200       -0.74360892300725
N           -7.76195688613131       -0.54227698883335       -0.18769055437047
H           -9.13150247758258        0.52019713891951        0.42952484594552
C           -8.78579587773187       -1.44104825799701       -0.67620153037061
H           -8.63085789526173       -1.70527029520557       -1.72980882843030
C           -8.84474566050369       -2.72997198918787        0.15217941604994
C          -10.13516503213057       -0.72336725738625       -0.53791502649272
H           -8.95995670873448       -2.48760512751171        1.20686090720654
H           -9.69279944532344       -3.32673223103418       -0.17140859075926
H           -7.92827504043154       -3.29843912472739        0.01646686655989
O          -10.07643570654608        0.38783112440022        0.18629089077537
O          -11.15088395682497       -1.14215090764131       -1.02036091782591
