42
 energy: -62.486133503438 gnorm: 0.000481426272 xtb: 6.7.1 (edcfbbe)
N           -2.22820567445676       -1.85391511757766        1.36698248827890
H           -1.25905563344429       -2.13960640927772        1.42973531323216
H           -2.79606845046809       -2.69647092180370        1.34671703588336
H           -3.49333629221881       -0.68251509426930        2.19776192269265
C           -2.46828543098906       -1.06338119924494        0.16131951131212
H           -1.65469371912435       -0.33169222028234        0.07973347152488
C           -2.54377581021424       -1.87800943971610       -1.12889248485735
C           -3.75002417772905       -0.27276960731338        0.38806818118445
H           -3.33911595672827       -2.61752003181867       -1.05763213187340
H           -2.76400875308243       -1.21613679260066       -1.95937462982355
H           -1.60050938903369       -2.38835135498977       -1.31375466576179
O           -4.13689279858017       -0.16958019381561        1.66694882793523
N           -4.34384344797169        0.24059767200061       -0.59625789472364
H           -6.39933220191760        0.17354716424523       -2.51337910587057
C           -5.56865552160325        0.99724457647001       -0.39075428758860
H           -5.65323822653166        1.33437520663950        0.64842149453082
C           -5.59030678374227        2.19088903594045       -1.34913290127094
C           -6.67205121478990       -0.00666325530069       -0.63594134968123
H           -4.82279231557561        2.89336789536977       -1.01802732077726
H           -5.29450658372598        1.85689842759719       -2.34858417307308
C           -6.94261166605022        2.91170407462501       -1.41550744153410
O           -6.96788712683436       -0.32263166914915       -1.91050978141852
H           -7.71474501025540        2.20381554500594       -1.73797793617609
C           -7.34799864695999        3.46770465364109       -0.05229711784358
C           -6.86699767005880        4.03970818840830       -2.44354177949889
H           -6.56547448571107        4.11113614755915        0.34419024842098
H           -8.25946361395838        4.05386403863239       -0.14396579025379
H           -7.53300235960538        2.66522116914972        0.65677422746927
H           -6.59403984212477        3.65615097585591       -3.42451900407883
H           -7.82804133861807        4.54080215112269       -2.52910403903476
H           -6.12308289824831        4.77467830293008       -2.14379027587279
N           -7.17910027945284       -0.58548442918184        0.36033363176901
H           -7.37086541684588       -0.71595362606151        2.15219944093766
C           -8.15367162518432       -1.64470132713961        0.23643128577470
H           -8.97104718644750       -1.36838745769018       -0.44109333276095
C           -7.52256800775197       -2.95195755297350       -0.25625959957297
C           -8.72998758198693       -1.88703048483938        1.64056665768774
H           -6.68453528372292       -3.22039836650749        0.38457116040473
H           -8.26513875438341       -3.74405478318577       -0.22120537398675
H           -7.16669193651355       -2.83203291542472       -1.27629941778428
O           -8.07223653052519       -1.24834931306274        2.59914735864047
O           -9.66830560878838       -2.60613747756280        1.84683465925646
