42
 energy: -62.486133511113 gnorm: 0.000480129325 xtb: 6.7.1 (edcfbbe)
N           -0.96711624785473       -0.51000446579481       -0.31061146436743
H           -0.17516011428962       -0.77179818225559       -0.88570115607629
H           -0.93121911451585       -1.07856917820461        0.53149879235057
H           -1.88948599837472        1.07229455246872        0.35252028102773
C           -2.22501727132855       -0.75924859999584       -1.01677950555833
H           -2.12823048648090       -0.31264593139773       -2.01507273233698
C           -2.60913398160682       -2.22894911157186       -1.15901917015329
C           -3.31053544659684        0.02659229520346       -0.29909931436857
H           -2.63110917499938       -2.70524779959941       -0.18098147684927
H           -3.60317239078281       -2.29143123520457       -1.58821192929486
H           -1.89747030699412       -2.75261946488413       -1.79400516182890
O           -2.86577472754540        1.10030477553441        0.39244839785496
N           -4.50389623766886       -0.34476279545664       -0.39055115274270
H           -7.60509050590250        0.60410360661454        1.52692341523861
C           -5.58856067037488        0.38898996230314        0.20351117030502
H           -5.39157192941165        0.58994144064376        1.26880952451790
C           -5.76713956756460        1.72721956741895       -0.55406218717241
C           -6.83780551700483       -0.44645664722931        0.06740271914889
H           -4.81058412745946        2.25081306282271       -0.50590281339215
H           -5.95924075789686        1.46916902556710       -1.59775744417209
C           -6.86464470012095        2.67239748640705       -0.05452856881801
O           -7.87279812539044       -0.10577845587290        0.93082623957093
H           -7.83189663425033        2.15836240337013       -0.06587177860441
C           -6.57552670714077        3.19103031369839        1.35442778656039
C           -6.97058637897174        3.85482405593035       -1.01789761678541
H           -5.63008859453631        3.72904361603073        1.36455427888964
H           -7.36085985262036        3.87271049629662        1.67413408224541
H           -6.50797545756209        2.39040274183124        2.08958263166303
H           -7.21336914626681        3.51063644706148       -2.02006021661853
H           -7.74968176531209        4.54082924403617       -0.69361097450791
H           -6.02889251893117        4.39792556836782       -1.05837537539856
N           -6.89024590138545       -1.38159338924427       -0.75446626224956
H           -9.19424247493396       -0.32094885409812       -0.28272210250615
C           -7.98837485549859       -2.27853828920504       -0.99634681695491
H           -7.59713338501395       -3.03643358968465       -1.68481529245124
C           -8.52969338501083       -2.97586023952130        0.26011443954740
C           -9.15862636268153       -1.59395527607127       -1.71944275495954
H           -8.97745138856087       -2.26454937116112        0.95066644070467
H           -9.27914649117529       -3.70932426357577       -0.02693702748419
H           -7.71289753170356       -3.48379773226777        0.76771839462524
O           -9.66332774364820       -0.51780521816702       -1.11570537355991
O           -9.61141727160266       -2.00929860244419       -2.74766785438909
