42
 energy: -62.486133515664 gnorm: 0.000479243701 xtb: 6.7.1 (edcfbbe)
N           -1.26729967629392       -1.16247103028197        0.52183952062265
H           -0.75368348522176       -0.29697893929625        0.65240725334971
H           -0.59800070368150       -1.89069165534036        0.30188242097136
H           -2.79057276190513       -0.97321938215064        1.67063017142005
C           -2.25196388815699       -1.02217664559304       -0.55127016245326
H           -1.89828806641109       -0.43760751760497       -1.41044010171148
C           -2.69686730232250       -2.40370082730576       -1.03379110365919
C           -3.45847192443113       -0.32101489692504        0.04028373753225
H           -3.05474850245249       -2.99750593175501       -0.19488661211002
H           -3.49848798765153       -2.29244479111133       -1.75782942260564
H           -1.86646879685827       -2.92652937018894       -1.50333761171643
O           -3.60767691754537       -0.51607804805154        1.37881087236545
N           -4.22258192921425        0.34876624681708       -0.69234101252225
H           -5.53128098739292       -0.51827213776185        1.74103403071083
C           -5.42334863626262        0.97597148265559       -0.16726097683993
H           -5.20278000046662        1.46657032069085        0.79327958009653
C           -5.90618952385840        1.99515994605966       -1.19821880390116
C           -6.44591869861805       -0.11165519886492        0.07748944189761
H           -5.08400122140933        2.68462903631389       -1.39699465856593
H           -6.11925495511432        1.44156010408584       -2.11123379921809
C           -7.15273968171436        2.77961099898315       -0.77972392242823
O           -6.37948445346064       -0.71751827411726        1.31307795285392
H           -7.94984982730583        2.06539147905002       -0.55250418433441
C           -6.90135470295254        3.64929003906260        0.45083148982159
C           -7.61007995725275        3.65253575713115       -1.94671299489699
H           -6.05356296483963        4.31092348473185        0.28274208125915
H           -7.77578592750070        4.26091210241976        0.66084802686811
H           -6.70116356440513        3.04574881681803        1.33270765133846
H           -7.81862765057644        3.04007880046022       -2.81973665935906
H           -8.51498621543077        4.19576639286678       -1.68519264232603
H           -6.83849512063055        4.37450253637269       -2.20676374077910
N           -7.23622654860273       -0.43853324985920       -0.83423216349752
H           -8.16105912140429       -0.87326631921053        1.54038280943021
C           -8.21576486148033       -1.49224525795527       -0.79933628458127
H           -8.60770338593441       -1.55598290290683       -1.82117107780738
C           -7.65990517653994       -2.86352618870223       -0.38935188261102
C           -9.41242912890389       -1.16031576303314        0.10637372706461
H           -7.31457580806813       -2.86146565749875        0.64229211957655
H           -8.43673126624615       -3.61591976211041       -0.50044492224937
H           -6.82326515157088       -3.11965248253997       -1.03592513917937
O           -9.12159507824732       -0.85357219064104        1.36938585225297
O          -10.54291970528913       -1.19709893546932       -0.28866372908758
