42
 energy: -62.486133512451 gnorm: 0.000480072609 xtb: 6.7.1 (edcfbbe)
N           -2.88096043353564       -2.05871222030210        1.81229006854196
H           -2.00465280682065       -2.53978906174120        1.97587437554866
H           -3.57795611654645       -2.76328883194447        1.57923721377699
H           -4.08552375280048       -0.77203045456943        2.55621732739784
C           -2.75704832786438       -1.10789320251627        0.70900601713969
H           -1.88630238253374       -0.47251121992905        0.92109711402643
C           -2.59299366786769       -1.74022740999739       -0.67186417593911
C           -3.98194489391474       -0.21047802883046        0.77121856695053
H           -3.37708437031724       -2.47445835723371       -0.84207636120364
H           -2.66871043416701       -0.96833110662421       -1.43032945358123
H           -1.62681399845855       -2.23437674823218       -0.75030303046109
O           -4.55384201565882       -0.12733753475976        1.98489024682980
N           -4.37886716457304        0.40526639509121       -0.25333366191161
H           -7.77640686796240        1.92701708460691        0.63816236136315
C           -5.57972188793935        1.20784002319881       -0.17815513525589
H           -5.47239058984136        1.97807418341301        0.60106242592846
C           -5.74879096502827        1.85844307628604       -1.56350813605231
C           -6.77210130332314        0.34918163570861        0.18747280566608
H           -4.79320751032158        2.32756042460141       -1.80380766792755
H           -5.90139379567756        1.04799349425484       -2.27819629311384
C           -6.86935265848522        2.89186785184973       -1.71564424209232
O           -7.90218100207436        0.97164683127250        0.58478166753205
H           -7.83237747142434        2.42776562183581       -1.47437327328653
C           -6.65316267117853        4.11059990901963       -0.81806628893260
C           -6.93383124241169        3.34315678876860       -3.17506045702309
H           -5.70195986893099        4.58242513680687       -1.05492932445083
H           -7.44424305934507        4.84048998425141       -0.97654250204654
H           -6.64410847240771        3.85288796455360        0.23962235775265
H           -7.11381857883090        2.49559859892558       -3.83176757114107
H           -7.73705838111313        4.06269525852491       -3.31629715415067
H           -5.99736712774750        3.81186560269377       -3.46859589074090
N           -6.65816946318151       -0.90166803114529        0.15311111660796
H           -5.52894767158735       -2.21984086053326        0.14746389893262
C           -7.68196637370011       -1.82445545961891        0.56872335088410
H           -8.22227592487268       -1.47169670189815        1.45646708894195
C           -8.68836618367061       -2.10452926176593       -0.55125588730417
C           -6.94962293847769       -3.13058971067522        0.91836573242074
H           -8.16345565728574       -2.40497081180131       -1.45589374101472
H           -9.35609382832250       -2.90421088580368       -0.24310475226429
H           -9.26821309739799       -1.20870990744107       -0.75915200004576
O           -5.67069651384720       -3.11999832160627        0.54770092218743
O           -7.47220979855154       -4.06429747884003        1.45842728826560
