42
 energy: -62.486133507749 gnorm: 0.000480425072 xtb: 6.7.1 (edcfbbe)
N           -2.11008400679727       -0.17716904873677        1.71533435066347
H           -1.12673161673533       -0.39911505244362        1.61471791232162
H           -2.50959736724272       -0.85674697257496        2.35758197451443
H           -3.28222266039802        1.31999749854648        2.02114850276853
C           -2.79713069480509       -0.26362857429484        0.42624447121509
H           -2.20661833384398        0.32061855985854       -0.29272032003457
C           -2.98331106181286       -1.68140635717992       -0.10704547942814
C           -4.12467171681434        0.46148173282183        0.58094590081622
H           -3.49335162411351       -2.29853339836740        0.62866843577842
H           -3.58789071330794       -1.64950383011295       -1.00640419651686
H           -2.01859665881289       -2.13010739264139       -0.33521266080786
O           -4.13702134875394        1.39975878007238        1.55190219329390
N           -5.08679543469678        0.17489253514319       -0.17182819332507
H           -8.69395319735650        1.27560561202003        0.33224163628227
C           -6.34659130826736        0.86622543834129       -0.10086620123351
H           -6.38224700365924        1.60190227628211        0.72077695481825
C           -6.62673944389927        1.56863538154786       -1.44942356096405
C           -7.42572245057401       -0.16088160642273        0.15384728913844
H           -6.02298733524139        1.06398342272535       -2.20521323969726
H           -7.67625584997320        1.42816315970923       -1.72357272148101
C           -6.31901002857029        3.06970082411319       -1.46013756393577
O           -8.68068783976526        0.31035012739364        0.35078233482618
H           -6.88747699218981        3.55259718212845       -0.65471184093436
C           -4.83573575466953        3.34387928772068       -1.23300775192994
C           -6.76826138576110        3.67070172886374       -2.79119809713690
H           -4.23872465602161        2.82983430697847       -1.98306742193144
H           -4.63506482277669        4.41084025900555       -1.30154326115874
H           -4.52469045960317        3.00363095798077       -0.25034189221239
H           -7.83129670808182        3.50628245023848       -2.95485926117026
H           -6.58253925551499        4.74201434710882       -2.80578366489647
H           -6.22050583843152        3.21653306516697       -3.61372079887914
N           -7.12653892968503       -1.37749777107072        0.19914834260960
H           -5.82192406808671       -2.57406118387243        0.27620624978567
C           -8.06276888769381       -2.43584189035632        0.47619837853954
H           -8.74175798632504       -2.18521017229180        1.30111656775468
C           -8.89379765211051       -2.80092132158091       -0.75813309909577
C           -7.21541366405603       -3.65731204156651        0.87486696002183
H           -8.23551083325234       -3.01068861926728       -1.59863252214310
H           -9.48962180775078       -3.68318435658283       -0.54169596303295
H           -9.55106149080408       -1.97525687637077       -1.01933811242990
O           -5.92139540371791       -3.49436853312259        0.63348657447678
O           -7.68388696445586       -4.65821941112625        1.34217729672850
