42
 energy: -62.486133509088 gnorm: 0.000480214231 xtb: 6.7.1 (edcfbbe)
N           -3.10765503477931       -2.57930985808174        1.03215718366278
H           -3.65667781683400       -2.69329663005425        1.87924484443805
H           -2.19719773653753       -2.99418745842316        1.19019194173119
H           -4.55442972898473       -2.55492555678928       -0.20751755922887
C           -2.98411676986326       -1.16757927386633        0.67870092510906
H           -2.71545355558542       -0.51571071687975        1.52136623417165
C           -1.94545443051919       -1.00391723284651       -0.43163187002485
C           -4.34627424465513       -0.73181061198667        0.15429137484696
H           -2.20409635912836       -1.63291889363547       -1.28051766793142
H           -1.91762415117883        0.03290550334069       -0.75220752969176
H           -0.95880489234635       -1.28948592934406       -0.07321509593688
O           -5.05056263804750       -1.73037143846282       -0.40096285078471
N           -4.64457083314516        0.48599404726455        0.21747434390318
H           -7.85807960326279        1.08116625973031       -1.66378361206455
C           -5.90758906966084        1.09848674139848       -0.11816520669674
H           -6.08665156585439        1.80424267360536        0.70653239805365
C           -5.72161484500442        1.90725575427656       -1.41708817352741
C           -7.10759930716068        0.16283345267118       -0.15022715628717
H           -4.66560328497809        2.17929953973816       -1.46961243605263
H           -5.91854085541177        1.25942547279493       -2.27740684829880
C           -6.56101165691474        3.19414483774601       -1.49099019776341
O           -8.08283033386220        0.36335798065324       -1.05870261063122
H           -7.56021145551215        3.01747452865548       -1.07247579174004
C           -5.90816351268485        4.30628355860038       -0.67269231446244
C           -6.71614199801978        3.63941765698306       -2.94493188083059
H           -4.94389739079382        4.57192317525762       -1.10019675611459
H           -6.53754099624772        5.19327516073210       -0.66661062970093
H           -5.74982437358883        3.99190328398683        0.35575654465586
H           -7.23292123510973        2.88766105779967       -3.53930490825954
H           -7.28545939754117        4.56427282247855       -2.99994946031043
H           -5.73914655681850        3.81329916404382       -3.39029786727748
N           -7.14741054255452       -0.74847559872920        0.71549822539704
H           -6.21513568470559       -1.59653051128828        1.90179083000618
C           -8.17248137595628       -1.75242196455442        0.84191659030347
H           -9.11409394393166       -1.30166910252590        1.18184794576669
C           -8.43363663099498       -2.55333234379381       -0.43721367889968
C           -7.68375639186070       -2.71847949335266        1.93868646198445
H           -7.48661034139561       -2.89359155238680       -0.85105222078312
H           -9.05123549706784       -3.41372580677389       -0.19484236892305
H           -8.94068602958436       -1.93730238749413       -1.17413106942609
O           -6.47051361304702       -2.42200583956227        2.39294380964569
O           -8.32488559548528       -3.65560017058809        2.32626336537854
