42
 energy: -62.486133513635 gnorm: 0.000479861161 xtb: 6.7.1 (edcfbbe)
N           -1.02267397609238       -0.86729462832074        0.28004581974321
H           -0.14862071840355       -1.11137840546593       -0.16933283106797
H           -1.20898960938478       -1.57419434669613        0.98661309991552
H           -1.91325912601923        0.64798890674532        1.06592727984703
C           -2.11830712045798       -0.83711009106614       -0.68945810653359
H           -1.76616727923619       -0.27354261285485       -1.56289168000535
C           -2.61335747205187       -2.20893298098001       -1.14132646822446
C           -3.24570660671672       -0.02159258920798       -0.07366694689831
H           -2.91992878169995       -2.79897622472387       -0.27952715668244
H           -3.47375372428212       -2.08057371373612       -1.78917571206536
H           -1.82959331085793       -2.74241839790852       -1.67529946320071
O           -2.86727098546426        0.80863656471739        0.92089314575677
N           -4.41477444498243       -0.14974574850798       -0.51299218101089
H           -6.12374497870345       -0.58728728998859        1.99773960452770
C           -5.50574654305621        0.64755403775742        0.00791962872628
H           -5.25742592733487        1.08403571392311        0.98874654009751
C           -5.78819085213455        1.76767997659547       -1.00259861623182
C           -6.66068189652511       -0.31320685466869        0.16105968224233
H           -4.92734171003416        2.44001919451301       -0.98654947155855
H           -5.84488781873095        1.30292310949004       -1.98679478111976
C           -7.06838467193816        2.57107923775892       -0.75522608011609
O           -6.79540561154751       -0.89754834297744        1.37766643585865
H           -7.92311479507124        1.92536362261105       -0.98236327941218
C           -7.18437385750866        3.06005546969950        0.68684611495030
C           -7.10534996901167        3.75752729346029       -1.71751018361621
H           -6.28421562959518        3.59643487029644        0.98024780757450
H           -8.03120427349544        3.73548325563627        0.78662382777382
H           -7.33778884809456        2.23267105334813        1.37565115204209
H           -7.01682398067126        3.41663564915142       -2.74592891726865
H           -8.04064716468597        4.30282849106018       -1.61523346664541
H           -6.28554178682452        4.44171509932429       -1.50935863689613
N           -7.40221121551584       -0.58641457567016       -0.81785745638435
H           -9.11452341231486        0.55588220632063        0.07228436807984
C           -8.44502868268356       -1.58681498703988       -0.70828697530970
H           -9.03484772634847       -1.49974519146796       -1.63392907227898
C           -7.88827730982170       -3.00507691876717       -0.60392498891653
C           -9.41329639287666       -1.30256702212284        0.44646735857535
H           -7.31174148469973       -3.10808068684401        0.31096725002604
H           -8.71064069879757       -3.71397764865582       -0.57839302937684
H           -7.24803381517773       -3.21232065685496       -1.45723225001744
O           -9.65131935507203        0.00169511867274        0.66088036577071
O           -9.96299769760767       -2.14943476308600        1.08721335970925
