42
 energy: -62.486133512158 gnorm: 0.000479937851 xtb: 6.7.1 (edcfbbe)
N           -1.98813826667239       -0.32298308905788        0.59405659586765
H           -1.24738917456708       -0.81676132410976        1.08180484435667
H           -2.46202205958253        0.27492241885152        1.26321052052541
H           -3.98048495060715       -1.22769295288863       -2.17637809536916
C           -2.95030346080183       -1.27300908284960        0.05904451530807
H           -2.47512422641608       -1.76419257973600       -0.80406555635130
C           -3.39929649738582       -2.34627811294349        1.06406169346061
C           -4.16703591329800       -0.50159183890029       -0.39933386293574
H           -3.86550773995851       -1.86468699238084        1.91938711368827
H           -4.11936999008603       -3.02430373981093        0.61364281016508
H           -2.54072171281224       -2.92450967480787        1.39998743810087
O           -4.56811235760965       -0.64040125615266       -1.68494350211485
N           -4.77208109488106        0.20703746793909        0.44469582818844
H           -7.74946017868605        1.27817651531316       -1.60410062104263
C           -5.94987126346766        0.96187915990125        0.07391444071536
H           -6.28339396605819        1.43742907213066        1.00687671287561
C           -5.64575446086075        2.05361399286477       -0.96726194321125
C           -7.05144842274636        0.00407988009740       -0.34778629364070
H           -4.59693337276411        2.33431912122508       -0.84789818672843
H           -5.74238658128654        1.63507481470412       -1.97323351136876
C           -6.51082444853752        3.31529188267418       -0.81126184630160
O           -7.95546291670504        0.39790012660598       -1.26462699599769
H           -7.53984541350685        3.03476986763137       -0.55002273037283
C           -5.97174926220664        4.19802990618823        0.31263587519524
C           -6.54154722562142        4.09952420422715       -2.12260932582265
H           -4.97799941678345        4.56175462673013        0.06108442593644
H           -6.62227006959400        5.05545126281047        0.46890672041561
H           -5.90586587361045        3.64444099568104        1.24596370940895
H           -6.97590685253871        3.51018587044986       -2.92855615063884
H           -7.13194948683581        5.00569206239817       -2.00917782161483
H           -5.53272263540908        4.38346379260440       -2.41367005090183
N           -7.09317052541473       -1.12117736722017        0.21432909764677
H           -6.48736984610232       -2.18677101590029        1.51219168795441
C           -8.08706839330713       -2.12189346609642       -0.08933399072574
H           -9.10393116947882       -1.71347784258935       -0.02723389062270
C           -7.88906045357990       -2.74266024017194       -1.47631066458155
C           -7.93527624063472       -3.22780333537735        0.96882535276326
H           -6.86799806899261       -3.10624607115032       -1.57549957282284
H           -8.57632601970363       -3.57540421920629       -1.59565812844545
H           -8.07743824314163       -2.00140312311407       -2.24823674357034
O           -6.89793207396423       -3.04732480655891        1.77621077739557
O           -8.66964097681968       -4.17449085879841        1.03530503642897
