42
 energy: -62.486133540772 gnorm: 0.000476434075 xtb: 6.7.1 (edcfbbe)
N           -2.88301061258027       -1.09375654435552        1.96783367167315
H           -1.91661865805703       -1.36584368264638        2.10295574716511
H           -3.44170767030832       -1.94480366311527        1.96818807843431
H           -4.23914445182463        0.13145998392924        2.59631511507005
C           -3.05342317504134       -0.39566688216526        0.69474569243510
H           -2.32284473392674        0.42540387440487        0.67452803072360
C           -2.86717032248385       -1.26316551356210       -0.54826143762419
C           -4.43166212060521        0.24175648078031        0.73442359070817
H           -3.49502530484385       -2.14846504596630       -0.48465753066007
H           -3.15537665572689       -0.69685605388610       -1.42696560954789
H           -1.82873801717384       -1.57459600376007       -0.64069405836439
O           -4.88604116823822        0.51716042882540        1.97087917172434
N           -5.06176845843262        0.47428401669185       -0.33004726798598
H           -8.81662968757560        1.20035724716216       -0.10308868170500
C           -6.38573171931284        1.04181927089989       -0.26779014182119
H           -6.48321218340159        1.76232080431311        0.56231378182655
C           -6.69118902058585        1.73235728967938       -1.60860258992225
C           -7.37800798674676       -0.06911941150886        0.01726238709659
H           -6.13092397226207        1.19767456808300       -2.37652188145005
H           -7.75427909100144        1.64368195646046       -1.85056347674565
C           -6.30675502431153        3.21543571599416       -1.63485144501181
O           -8.68902733395990        0.25342930243852        0.03752930231984
H           -6.80109276474315        3.72089893307347       -0.79503624786772
C           -4.79932001269682        3.39853796012457       -1.49154013364877
C           -6.79420770803856        3.85356617895582       -2.93457559596870
H           -4.28359375895095        2.91663665193660       -2.31834618283371
H           -4.54449333841029        4.45601536320700       -1.49107638634046
H           -4.44145824727940        2.95474585636383       -0.56718001428408
H           -7.87442912834043        3.76561013832257       -3.03287163705226
H           -6.53465922346178        4.90915008771000       -2.95950913812725
H           -6.33119989258223        3.36670833868756       -3.78978179918702
N           -6.94282345399623       -1.21456576828399        0.28888975022704
H           -5.53655525728292       -2.11653937824505        0.70325802414452
C           -7.74850092512790       -2.34237292750074        0.67633094290409
H           -8.52171707947716       -2.06720567539102        1.40487400248681
C           -8.41332631286807       -3.01718448790758       -0.52698984326704
C           -6.77632816002856       -3.34005545867163        1.33254674790051
H           -7.66500482654776       -3.24801944572781       -1.28246297333445
H           -8.89087873659275       -3.93784841837238       -0.20359760777024
H           -9.15867049568252       -2.35355310486650       -0.95797241003123
O           -5.50203342079356       -2.98398299753970        1.19229108976825
O           -7.12761113756230       -4.33743549666176        1.89675348107429
