42
 energy: -62.486133504812 gnorm: 0.000481292378 xtb: 6.7.1 (edcfbbe)
N           -1.52672717052699       -0.84855681369222        0.21633786396067
H           -0.88856220828819       -1.63374356831775        0.17112405389918
H           -1.28617766705113       -0.30747594426633        1.04293953801592
H           -2.23059943914196        0.48729414157956       -0.91330057207231
C           -2.91407362802951       -1.30663023440796        0.31469543934873
H           -3.05013977204863       -2.09677185513888       -0.43467024163750
C           -3.30571613797856       -1.84446225400208        1.68781740148883
C           -3.80775712070308       -0.14469717915339       -0.11951859650550
H           -3.17654607604275       -1.07182912244252        2.44346597381463
H           -4.34725813408276       -2.14548706440427        1.67885560606744
H           -2.68744723070199       -2.70149466347542        1.94760325749607
O           -3.16890760204714        0.77055354550527       -0.87986684582007
N           -5.00808254504477       -0.16336293129180        0.23105048811497
H           -7.94340536823531        1.32211856862793       -1.60114541540365
C           -6.07064666883332        0.75774813110732       -0.06801683610569
H           -6.37403348668077        1.15660354740434        0.91277041736779
C           -5.79134907022449        1.94142643034568       -1.01385195451571
C           -7.23240557567097       -0.11339018847054       -0.53520468312880
H           -4.74294100959065        2.21674700588662       -0.91656100565645
H           -5.93016111004356        1.62018044890270       -2.05110727915180
C           -6.63846878074906        3.18946374709736       -0.70692722649901
O           -8.15989315878255        0.41193727634919       -1.36175749170037
H           -7.65765892007223        2.90103110970340       -0.41640086066777
C           -6.03463466910351        3.96840879441168        0.46061688877934
C           -6.72234804018810        4.08471889060699       -1.94277345706293
H           -5.04433263615390        4.33353591609342        0.19729833045836
H           -6.65972489930737        4.82194828267281        0.71336343666636
H           -5.94366266603007        3.33994244807543        1.34361947079127
H           -7.20322183037901        3.57110586867031       -2.77381337441766
H           -7.29355238636881        4.98406624030716       -1.72433417994025
H           -5.72454972253637        4.38141888995410       -2.25814171438946
N           -7.28782891458834       -1.29323663496977       -0.10941887778419
H           -6.57569224514857       -2.49391628694280        0.94777664361759
C           -8.31798151705355       -2.24058351907285       -0.44890421443534
H           -9.31983925120586       -1.84148740839076       -0.24385473610374
C           -8.25453567747016       -2.68893349355070       -1.91268805383746
C           -8.08022232317086       -3.46696468013036        0.45314917105030
H           -7.24865881496792       -3.03004468250082       -2.14995600592975
H           -8.95319549827681       -3.50659608665342       -2.06585072661671
H           -8.51377917135579       -1.86236588075639       -2.56912026390160
O           -6.96601517116073       -3.38138621556711        1.16574789529280
O           -8.82345798414481       -4.40885873450370        0.48788851395270
