42
 energy: -62.486133509989 gnorm: 0.000480122212 xtb: 6.7.1 (edcfbbe)
N           -1.00978161942945       -1.22641595150623        0.09308038632166
H           -0.10061817840533       -1.33427845175262       -0.34018050590242
H           -1.32178927270721       -2.15142560907313        0.37733469473837
H           -1.90470640996430       -0.11358579776017        1.39251018134023
C           -1.97089744126527       -0.65066182377250       -0.84821726533711
H           -1.48755555056254        0.21757514039609       -1.31502574123342
C           -2.45579699027821       -1.60323799096532       -1.93779472559944
C           -3.13153319659921       -0.10903423078545       -0.02982557144252
H           -2.90910672651657       -2.48549892156630       -1.49063719454616
H           -3.20694313058850       -1.10488857795941       -2.54075500714487
H           -1.62650316376512       -1.91198606361037       -2.57086204047398
O           -2.83646705286240        0.15507589864835        1.26405768612926
N           -4.25497881626297        0.05350794460161       -0.56591126586607
H           -5.35880482204947       -0.93950148904566        1.96668530528032
C           -5.35883856297113        0.64546177642999        0.16426052357284
H           -5.03976322099997        1.03610721312524        1.14248080684253
C           -5.93591895269475        1.77071090512825       -0.70002015636153
C           -6.33591148486984       -0.48762178147768        0.37433753700877
H           -5.15661469688895        2.52433553385275       -0.83171884512291
H           -6.15762032137025        1.34239852150123       -1.67709908722539
C           -7.19447013535027        2.42976975873096       -0.12851546383388
O           -6.13612363202334       -1.24299595094331        1.47942839381575
H           -7.93484609100349        1.64899491696252        0.06885351519929
C           -6.90633832642891        3.17456962682431        1.17353587632221
C           -7.77191311765098        3.39397272358489       -1.16322246756416
H           -6.12033856958982        3.91220816127026        1.02413758986985
H           -7.79971054418046        3.69241578818216        1.51525181001732
H           -6.59527708592322        2.49242133332008        1.96071108771489
H           -8.01100462277733        2.87004450907914       -2.08514267291005
H           -8.68083081372351        3.85749189698588       -0.78706688906972
H           -7.05525367465775        4.18055395654530       -1.39004453866895
N           -7.21828439193076       -0.74355888490103       -0.48222563708671
H           -7.80455732244645       -0.55927725359182       -2.17717555291280
C           -8.11591482903224       -1.86657025028748       -0.35610865332870
H           -7.60297427283515       -2.76729453146672        0.00442852029900
C           -9.28145882954397       -1.54979248502961        0.58763608524446
C           -8.68734051505284       -2.14435751605925       -1.75576409748524
H           -9.78331652007501       -0.63936984519700        0.26564300400540
H           -9.99123614328011       -2.37194008087034        0.56919848831528
H           -8.91197647326975       -1.41284574058171        1.60098097418427
O           -8.38625554819977       -1.20618338596998       -2.64370812030086
O           -9.35662018166338       -3.10731880904634       -2.00859584271287
