42
 energy: -62.486132224888 gnorm: 0.000637259160 xtb: 6.7.1 (edcfbbe)
N           -0.75606875919264        0.03233273529288       -0.16014573024904
H            0.10818248445228       -0.15647461368083       -0.65305532218000
H           -0.66536557166181       -0.35271551017933        0.77604182504982
H           -1.97260953944473        1.50648605776307        0.14613910532875
C           -1.89463330742602       -0.57927705619901       -0.84272337328952
H           -1.80797628279893       -0.32686708893741       -1.90786091042164
C           -1.98912959781859       -2.09698277285200       -0.69529840796960
C           -3.14668058387354        0.12382858518354       -0.33390076491970
H           -2.12420956166614       -2.36727644777411        0.35022325157483
H           -2.83411423213860       -2.47022322992558       -1.26422759495866
H           -1.08037794567031       -2.56724304257249       -1.06596494359385
O           -2.93988178620253        1.35652564356414        0.14899689068351
N           -4.25539229499380       -0.46541881328369       -0.40285120707729
H           -5.10313681709874       -2.13509612723182       -0.16652642554465
C           -5.51240283146954        0.12119538635686        0.01924556777026
H           -5.47504003442965        0.29817594670841        1.10426679372183
C           -5.86955481588824        1.43673190819170       -0.68657722194716
C           -6.54787442877350       -0.96138858485292       -0.23743941002059
H           -4.96287377476773        2.03199600571373       -0.79735917321613
H           -6.24175348799740        1.19376362800089       -1.68302155087800
C           -6.91381317554107        2.26434365783657        0.07344086716728
O           -6.07811262594707       -2.21536726977846       -0.17151870909892
H           -7.68065756829438        1.58564077901068        0.45708733920997
C           -6.27789443026196        3.00295136761479        1.24950506158387
C           -7.57182517053618        3.26726416880914       -0.87224238517845
H           -5.53321011170440        3.71173718678740        0.89319526776503
H           -7.03479986658579        3.55042662856951        1.80634520562033
H           -5.78868672672511        2.31331199544453        1.93304625264106
H           -8.07201991882471        2.76001179998212       -1.69342862529922
H           -8.31016148144481        3.86227168123001       -0.34025980172111
H           -6.82472671735456        3.94112313473041       -1.28705186683625
N           -7.73679044520205       -0.66198295834536       -0.52725160508045
H           -8.89956279378928        0.53760805181475       -1.23059414574670
C           -8.72473035916613       -1.68132874010338       -0.79899187547014
H           -8.30418549570757       -2.51867634951063       -1.37123561281470
C           -9.33711412116808       -2.22719942979808        0.49522488048589
C           -9.83785198346761       -1.02438836822056       -1.62778154636710
H           -9.71990047007759       -1.40721060084584        1.09970326385914
H          -10.15328702520203       -2.90105960544635        0.25066226284523
H           -8.58105028457013       -2.76399416701444        1.06294293065026
O           -9.72343575682711        0.29551207517463       -1.71657584755949
O          -10.73148156382690       -1.64509352865335       -2.13324770863620
