42
 energy: -62.486133511877 gnorm: 0.000480059853 xtb: 6.7.1 (edcfbbe)
N           -1.73307737828213       -1.28694083607223       -0.93044798929684
H           -1.09560139731235       -2.07268172068690       -0.88667591170916
H           -1.19448247579801       -0.44664070160460       -0.73677401927785
H           -3.12897251970495       -0.60297870495195       -2.05840280203445
C           -2.80171624928304       -1.42625027472638        0.05941105848651
H           -3.19999605544399       -2.44523283089724       -0.03435209038072
C           -2.37741446930012       -1.18348907475066        1.50483414975205
C           -3.92418616544089       -0.48921678462515       -0.35874476245947
H           -1.94675684236092       -0.18937976717984        1.60747734724886
H           -3.24903352953627       -1.24582810585578        2.14714586544567
H           -1.64245110236365       -1.92312582755703        1.81565244453494
O           -3.93505978983232       -0.19614827071161       -1.67965752349857
N           -4.76066912352904       -0.10460058563288        0.49439888023507
H           -6.26998965599277        0.49179820637086       -2.25386507314015
C           -5.88420030575271        0.75565027567061        0.16501222865057
H           -6.31907295941015        1.00428893128125        1.14000571170007
C           -5.51830179060292        2.05041845423205       -0.56704482588552
C           -6.89270637488937       -0.12211666701489       -0.55002444393702
H           -4.76311482785242        2.56243130269868        0.03432523550428
H           -5.05139068593344        1.82642585998047       -1.53007193024427
C           -6.71741386763723        2.98515785448475       -0.77984912351353
O           -6.95418980802111       -0.08835383063360       -1.89404018778439
H           -7.55743356032053        2.40742404067712       -1.18232663978108
C           -7.16543527273992        3.62921498964706        0.52999744621484
C           -6.34874089334226        4.06947121571970       -1.79227149977394
H           -6.35039920848140        4.20058817429019        0.96960554652836
H           -7.99819572906888        4.30489444600310        0.34938817082468
H           -7.48941876768924        2.87984582665988        1.24706453092556
H           -6.07595995814343        3.63459609051707       -2.75196094659359
H           -7.18852067066557        4.74145538902803       -1.95127328349781
H           -5.50647300086997        4.65475661676200       -1.42887465807476
N           -7.55079836319268       -0.94082609290973        0.14557483202491
H           -8.12709759801987       -1.51229127150205        1.76072251083189
C           -8.44639733310874       -1.90837654654382       -0.44593240716823
H           -9.10488827693832       -1.45185914020050       -1.19544173541366
C           -7.68224318153353       -3.06662286670046       -1.09806017981768
C           -9.30906358827225       -2.47749109058575        0.69095937252113
H           -6.98400009513487       -3.49595679987793       -0.38197691152639
H           -8.38839259369165       -3.83036910984107       -1.41135069297052
H           -7.12925704016542       -2.70762771762231       -1.96233870591825
O           -8.89448597816870       -2.11759377050426        1.89868615668589
O          -10.24919277798428       -3.19844510623963        0.50043212234252
