42
 energy: -62.486133517452 gnorm: 0.000479372906 xtb: 6.7.1 (edcfbbe)
N           -2.28705582447919       -0.97052444745566        1.89511298409101
H           -1.32576074185149       -1.28978281689784        1.90195212975241
H           -2.84282426223087       -1.67346900274636        2.37600204598529
H           -3.35035699096449        0.58213785250310        2.25845873885159
C           -2.77597646751414       -0.81763716979391        0.52448249604914
H           -2.02188171927828       -0.23984538242410       -0.02669391881488
C           -3.04294791698372       -2.12998036004686       -0.20876597582545
C           -4.02408483964381        0.04941892060002        0.59339322276344
H           -3.69299043637694       -2.76812124711977        0.38580689611231
H           -3.53704850113811       -1.91825256330042       -1.15056697975813
H           -2.10968193105893       -2.65651482039552       -0.39793921315286
O           -4.10407529776956        0.83245388853909        1.68635864547180
N           -4.86924250371206        0.00432014637491       -0.33535448344071
H           -8.31572142436840        1.35293717729059       -1.11022073280811
C           -6.05266358390958        0.82989611306372       -0.30152575359656
H           -6.15576178754112        1.34278994850308        0.66873603801933
C           -5.98537783001938        1.87693688511222       -1.43233080382326
C           -7.24637527118851       -0.09220998526617       -0.43292781124952
H           -4.94148713432648        1.96416866049145       -1.73899519039826
H           -6.53389669849457        1.51081247645899       -2.30467560718625
C           -6.49652809963029        3.26484839299060       -1.01821237537982
O           -8.41274549580458        0.42032390524478       -0.87895678313404
H           -7.42375020859954        3.15985743364779       -0.43828272799021
C           -5.46737550728273        3.97140425747443       -0.13809479462237
C           -6.79781389652788        4.10741887766101       -2.25652250342981
H           -4.56496652966118        4.17680961286042       -0.70987112270052
H           -5.86310637017306        4.91494918302362        0.23048910360335
H           -5.19536788940999        3.35643740804187        0.71630978417159
H           -7.57360988943766        3.64823415619927       -2.86654198230563
H           -7.13462291111079        5.10011983481846       -1.96744819066969
H           -5.90296335119340        4.21354184675661       -2.86554987475263
N           -7.11044517868625       -1.28218318786049       -0.05479967797538
H           -6.02126070893649       -2.48074945333973        0.58535539230439
C           -8.15032434972856       -2.27885921671285       -0.06630005831259
H           -9.04648193886987       -1.93679522944430        0.46665643284908
C           -8.54692801436351       -2.70458278154405       -1.48344127285541
C           -7.56871049184392       -3.50048345084219        0.66994363822581
H           -7.65979476831260       -2.99237032366290       -2.04403300453180
H           -9.22393771522434       -3.55232583167061       -1.42608973087941
H           -9.03901851176550       -1.88157892306114       -1.99510069345100
O           -6.27106670207565       -3.38218110452093        0.92287374580874
O           -8.22016161373018       -4.46339583523771        0.96624573107652
