42
 energy: -62.486133519278 gnorm: 0.000479318024 xtb: 6.7.1 (edcfbbe)
N           -0.93479154448480       -0.70152167009290        0.12124326164088
H           -0.07916054214432       -0.93697486987566       -0.36682821981194
H           -1.04352628523714       -1.36593413974238        0.88294138997655
H           -1.85240420719292        0.82781230393801        0.85923000344671
C           -2.08736265150552       -0.78533593446163       -0.77638414777020
H           -1.81717375697174       -0.26486725001028       -1.70395342674059
C           -2.54077002961328       -2.20436297143473       -1.11013044518400
C           -3.21543020716503        0.01734839093950       -0.14532207378436
H           -2.75758804409248       -2.75306384258379       -0.19531345018301
H           -3.44824425190491       -2.15540170027965       -1.70234146750985
H           -1.76878668547268       -2.73300465425554       -1.66554748415574
O           -2.81973295766942        0.93471689802144        0.76278022867058
N           -4.40040828663593       -0.19594272302804       -0.49984359926255
H           -6.36364148584314       -0.27448999845835        2.11584473851998
C           -5.49147413705463        0.59295103751593        0.02474945521351
H           -5.22960117876707        1.04437836543661        0.99557788852723
C           -5.82948890414629        1.69732067760061       -0.98772465010205
C           -6.66557801464118       -0.34279409425455        0.18991958242167
H           -4.94461818458923        2.32481685112718       -1.11285395637795
H           -6.03985711073043        1.19554594334223       -1.93196372178977
C           -7.02780460987767        2.56593652966674       -0.59447524823522
O           -6.99065504605402       -0.66886818539491        1.49704741880375
H           -7.88201269000818        1.91182357464281       -0.38995632314104
C           -6.74266731340126        3.41114387216465        0.64562462158719
C           -7.39379749307314        3.47290713678085       -1.76771634902464
H           -5.86411204342089        4.03324816395190        0.48628650111405
H           -7.58879945395403        4.06044098507730        0.85861726175932
H           -6.57015854275199        2.79207533688424        1.52282625012500
H           -7.63293032486329        2.87931558560753       -2.64611506166054
H           -8.25856310307373        4.08429574494798       -1.52156462624816
H           -6.56348083390347        4.13286750280727       -2.01083096408158
N           -7.25281268159168       -0.78820333866214       -0.81638038966995
H           -8.78713805315466       -0.63834641765822        1.25667985651499
C           -8.34434819095460       -1.72472991135524       -0.85439590770221
H           -8.47465481009268       -1.97416767924632       -1.91382364922829
C           -8.09953197948606       -3.01601549879935       -0.06156554601766
C           -9.66961431339885       -1.10248507697987       -0.38763470404464
H           -8.02564979890844       -2.82082431264646        1.00608872078380
H           -8.91687060268516       -3.71077393005516       -0.23837247700176
H           -7.16903516417938       -3.46905069687261       -0.39615438811361
O           -9.66100901324839       -0.56006606236861        0.83022877759219
O          -10.66090672788898       -1.12374573653002       -1.05955860005285
