42
 energy: -62.486133513475 gnorm: 0.000479965277 xtb: 6.7.1 (edcfbbe)
N           -2.63771021921216       -2.38533265856799        1.15350298907265
H           -2.79964381356653       -2.22813617642708        2.14272741897194
H           -1.73415447241944       -2.83032470419031        1.05028918359516
H           -4.42001269608721       -2.60444982045507        0.54391828198705
C           -2.69036345772961       -1.12842317319734        0.41088430942699
H           -2.20238765931373       -0.28784071169138        0.92265929295933
C           -2.05187382038582       -1.31218921763596       -0.96574709316473
C           -4.16483628611654       -0.78099320894657        0.22215782633512
H           -2.53017518508833       -2.13506495021410       -1.49240538988588
H           -2.17241962492728       -0.40164002020138       -1.54454716266606
H           -0.99044562550308       -1.52979463670438       -0.86678566186398
O           -4.98156696680868       -1.84354089273272        0.27948754639574
N           -4.45065436491968        0.41737817562991       -0.00842940915975
H           -7.15594586489787        0.55051596029987       -2.19484281063618
C           -5.74309666001560        1.02910132781667       -0.20328472122375
H           -5.91825622903705        1.59600739166014        0.72155163220874
C           -5.58738217319884        2.02881233377456       -1.35930762897205
C           -6.92916207368728        0.08624589059934       -0.34388479581698
H           -4.63972453858763        2.54454726608896       -1.19660625460307
H           -5.47782361228769        1.48282370334450       -2.30308200877776
C           -6.71689835315369        3.06515473473718       -1.45923875308369
O           -7.56257664528551       -0.01932573102621       -1.52983331495738
H           -7.68571945026449        2.57348583796146       -1.31243850821956
C           -6.56849476275054        4.13937501715625       -0.38423768275329
C           -6.70707722270852        3.71256272699423       -2.84400070679224
H           -5.62845173596663        4.67225476778410       -0.50924742055005
H           -7.38219141482467        4.85751733841790       -0.45414557979063
H           -6.58734756019452        3.70361775572021        0.61124374264086
H           -6.87302370667286        2.97530999954923       -3.62764123107708
H           -7.48885671625386        4.46463391534821       -2.91720820155073
H           -5.74959280075406        4.19571939878307       -3.02637446269485
N           -7.25337084918189       -0.57852758355839        0.67365255296082
H           -6.66644795527364       -1.22805874128930        2.21457261155799
C           -8.31320986979719       -1.55541646737576        0.72158934387555
H           -9.29001030839364       -1.06885940005537        0.60760226718254
C           -8.18970658699705       -2.67669171260628       -0.31618561501675
C           -8.24731949147391       -2.19258400134956        2.12070710080914
H           -7.18163384651203       -3.08383527034739       -0.28959130816099
H           -8.90267170835287       -3.46058105426723       -0.07606127375770
H           -8.39144052351305       -2.29573199823279       -1.31304263236076
O           -7.15262505786069       -1.86526373253118        2.79529529903662
O           -9.08988937925023       -2.93448330997242        2.54526324928403
