42
 energy: -62.486133506544 gnorm: 0.000480900776 xtb: 6.7.1 (edcfbbe)
N           -1.80742606120460       -2.16458001896706        0.24540571251404
H           -1.39652801646723       -1.84231771669859        1.11564222214971
H           -1.08490066409458       -2.63736423953188       -0.28515667677408
H           -3.67370487941760       -2.44293316444544        0.70743960050340
C           -2.35429915246747       -1.04123995249064       -0.51464200044004
H           -1.71521458921703       -0.14788696737972       -0.51389248154999
C           -2.61520406313225       -1.47378398190262       -1.95773075750207
C           -3.69602113627748       -0.67760620856495        0.09884597119151
H           -3.26662689872747       -2.34438708329968       -1.97282437058677
H           -3.10132765926425       -0.66547824520242       -2.49426112316265
H           -1.68034026292193       -1.72270201038303       -2.45602336158153
O           -4.29860319299848       -1.68958806663316        0.74456899979197
N           -4.10220094326694        0.50554657782691       -0.01404127874522
H           -7.40559146609003        0.72986612618086        1.74721881332603
C           -5.42235841273167        0.94984785784749        0.35544049285094
H           -5.38322368052653        1.28715684836384        1.40343258625839
C           -5.74259252349047        2.14688015329109       -0.56228052964956
C           -6.50741328831930       -0.09191997422190        0.22086070134429
H           -4.88477293496899        2.81916838253375       -0.52111983368654
H           -5.80849271687586        1.75303427975233       -1.57750008648770
C           -7.02262389822031        2.91949724872875       -0.22864016156115
O           -7.56143638016093        0.01982223998933        1.11316818531127
H           -7.86379114943673        2.22052612579394       -0.16052661825486
C           -6.89963395482687        3.68713578790264        1.08754506237305
C           -7.32920019350353        3.89714141949087       -1.36236665113787
H           -6.09408405318003        4.41510799340559        1.02038708566499
H           -7.82394110726483        4.21932520007973        1.30186889389114
H           -6.68818804384370        3.03090088653192        1.92985248461506
H           -7.47358157622607        3.36314294142383       -2.29805039267487
H           -8.23443904060435        4.45984298879073       -1.14636754815659
H           -6.50858688109659        4.59977813319619       -1.48918997410641
N           -6.42415602125286       -0.96483475029918       -0.66738736234799
H           -8.86841554302669       -0.39147601881515       -0.06852063832860
C           -7.34252234621810       -2.04018004186231       -0.93116085392922
H           -6.84121481041893       -2.67254880840599       -1.67340540719215
C           -7.68503825392362       -2.88664642985764        0.30228256359245
C           -8.64611444902329       -1.55397693659606       -1.58037868307800
H           -8.27586595514194       -2.32321815608230        1.02123196465830
H           -8.24516448945510       -3.76656168735310       -0.00389554464726
H           -6.76119077066814       -3.19736942920405        0.78473886741950
O           -9.32216193143065       -0.62810651447497       -0.89973528626876
O           -9.04799784373968       -1.98904083043791       -2.62189721440968
