42
 energy: -62.486133509062 gnorm: 0.000480479387 xtb: 6.7.1 (edcfbbe)
N           -1.22477154338220       -1.46719643121875        0.80519559617658
H           -1.00967528062142       -0.88911253250388        1.61104832752689
H           -0.35646382505276       -1.86416161346186        0.46615067432886
H           -3.02988853893254       -2.04304370533800        1.22679288141067
C           -1.87802058857079       -0.67800545218000       -0.23611292850258
H           -1.44578043617990        0.32132019112436       -0.38136101138539
C           -1.83463296996412       -1.43844252596830       -1.56362605744616
C           -3.33322256976293       -0.51360633291911        0.17316465671212
H           -2.27553852979283       -2.42716236258259       -1.44752548438782
H           -2.38112862423598       -0.88587813440584       -2.32286690877547
H           -0.80560838475707       -1.55730881502743       -1.89594452162235
O           -3.79682416206038       -1.48444408951101        0.98684413729533
N           -3.97386160725408        0.48675822542328       -0.24006630023098
H           -4.86163832775863       -1.44804966924185       -1.09323362999584
C           -5.38425377980315        0.70894432594012       -0.01735535159859
H           -5.53251440226348        1.03980268181384        1.01773331472208
C           -5.74989544241519        1.86088566894939       -0.97904689376487
C           -6.28568587657455       -0.49159629982326       -0.24087651647623
H           -4.99622898320559        2.63341659232563       -0.81657942844623
H           -5.62352368844240        1.49292370628148       -1.99994227107644
C           -7.14265055952337        2.47586197612196       -0.83904511781719
O           -5.79494993644782       -1.57144624038514       -0.87748309377727
H           -7.88824419052677        1.71159395697449       -1.07124477804174
C           -7.39934786075649        3.00310293295210        0.56992887695201
C           -7.29027031275436        3.60948442762252       -1.85377822827601
H           -6.64156795600668        3.73399462889455        0.84546691286116
H           -8.37302562900115        3.48444059734696        0.61636648132712
H           -7.38601166279292        2.19672581907271        1.29806274714122
H           -7.11617893183785        3.24858684223518       -2.86471829636784
H           -8.29263892555719        4.02751895719385       -1.80871734145309
H           -6.57669853425475        4.40410417788915       -1.64526617589424
N           -7.52107438325603       -0.35932526484350       -0.01646712780288
H           -8.98443472701095        0.61676651973109        0.54045629258977
C           -8.45196288490440       -1.42201568588895       -0.32500315472939
H           -8.29269934888378       -1.81929382159068       -1.33578163194721
C           -8.35512510193824       -2.57729794085140        0.67890886022845
C           -9.86645900106932       -0.83505632125097       -0.23718597839494
H           -8.48535970141457       -2.20065297641839        1.69163286715093
H           -9.13321755709354       -3.30494290467556        0.46602242969780
H           -7.38123633975692       -3.05356220399351        0.60098170949941
O           -9.91386588682517        0.35575894519015        0.34865830835089
O          -10.84001426575208       -1.41241572298752       -0.63525166685743
