42
 energy: -62.486133514174 gnorm: 0.000479366907 xtb: 6.7.1 (edcfbbe)
N           -2.10247367174215       -1.73774434670268        1.35594474440843
H           -1.12987014968599       -2.01860510580914        1.36929484681268
H           -2.66602494691882       -2.57893128637715        1.44488537633276
H           -3.31779521275843       -0.51329074425012        2.17903097776312
C           -2.43434167314223       -1.04695134735532        0.11123008830149
H           -1.63190574645120       -0.32619428043357       -0.08993628804684
C           -2.60233654265781       -1.96464483412948       -1.09863408467951
C           -3.70019974266926       -0.23907717452527        0.36631099002790
H           -3.38988369165597       -2.69161693711990       -0.90906331002810
H           -2.88301577458204       -1.37291702820087       -1.96311340789133
H           -1.67449369957780       -2.49334508162862       -1.30829594524945
O           -3.99901465084838       -0.04132335082953        1.65757121598083
N           -4.35926664151505        0.20062775133727       -0.61185195258374
H           -6.40687229183116        0.16960184740495       -2.51822204139821
C           -5.57331464622778        0.96891002954389       -0.38976485183328
H           -5.65048073924371        1.29534520254587        0.65349175226931
C           -5.58865272449546        2.17498966888675       -1.33305194891468
C           -6.68776077852260       -0.02069512558812       -0.64393406632141
H           -4.81440718596607        2.86688175099478       -0.99508117001381
H           -5.29936845867806        1.85192462072467       -2.33808364831536
C           -6.93539006356270        2.90720869052951       -1.38498175809915
O           -6.98707880195281       -0.31998184105818       -1.92107177270038
H           -7.71350482623924        2.20973879609579       -1.71556878399356
C           -7.33264362161833        3.44617445307934       -0.01259675405843
C           -6.85412988742097        4.04926690083654       -2.39687943110206
H           -6.54335387497182        4.07626281030269        0.39180780819892
H           -8.23894152348350        4.04188962775090       -0.09312618309432
H           -7.52328945977354        2.63471302590056        0.68466257782402
H           -6.58676065869564        3.67776913955049       -3.38402415524159
H           -7.81168357277178        4.55854731664531       -2.47244165505944
H           -6.10399268764627        4.77437750710992       -2.08877056259871
N           -7.20218797665067       -0.60491771360289        0.34578986096895
H           -7.44271227795771       -0.72419404291329        2.13334233056782
C           -8.19127946541346       -1.64889882238414        0.20218927091985
H           -8.99225881781234       -1.35847055016493       -0.48903001318246
C           -7.57004669681356       -2.96293193282169       -0.28491885539264
C           -8.79804160337431       -1.88673165571249        1.59385167852744
H           -6.74782921597297       -3.24634902592433        0.36968528631640
H           -8.32443998043566       -3.74435090289665       -0.26742079887630
H           -7.19364551872284       -2.84324026699405       -1.29756978944516
O           -8.15731851461586       -1.25033537395128        2.56582661523885
O           -9.74418323657660       -2.60051618615217        1.78145284943970
