42
 energy: -62.486133509653 gnorm: 0.000480316021 xtb: 6.7.1 (edcfbbe)
N           -1.48912873645421       -0.61104078760658       -1.77972786332646
H           -0.86387341413986       -1.30000891154411       -2.18015162465591
H           -0.93519727643181       -0.00726667758885       -1.17787577118107
H           -2.90940448655837        0.56075983379497       -2.33654561853697
C           -2.54504695449277       -1.25520544067077       -0.99836639097226
H           -2.96277979733326       -2.05946009644385       -1.61715654769609
C           -2.08855608711213       -1.83524158733922        0.33706572444299
C           -3.67060693416835       -0.23934501361845       -0.82194122687149
H           -1.64623564674189       -1.05523802946279        0.95375385688601
H           -2.94880097830454       -2.23812348960138        0.85954294642452
H           -1.35441743502038       -2.62337496509979        0.18078081709782
O           -3.69440409369043        0.71181857964837       -1.77142693462666
N           -4.46180604115563       -0.39819071417114        0.13669153515924
H           -7.83332469474995        0.50415002327945        1.46535529292955
C           -5.62595795040070        0.38377686049040        0.45298317400771
H           -5.61184360629000        0.47600708774521        1.54968462814938
C           -5.69855726052065        1.78731881995249       -0.18779249788618
C           -6.83917597594060       -0.43526358668674        0.07368421246594
H           -4.73842915724359        2.27494323105552       -0.00606298069650
H           -5.80168322377766        1.65422621209689       -1.26509991640724
C           -6.81728993772658        2.71121829667085        0.30830690360823
O           -8.00021489847487       -0.14749744929182        0.77386829791407
H           -7.79034993792579        2.23461980404063        0.14554972682289
C           -6.66567334276611        3.06830613292565        1.78744104079781
C           -6.80124522778683        3.99292776195684       -0.52538664707821
H           -5.71529590508882        3.57136822307882        1.95298983446060
H           -7.46399376848146        3.74034499712064        2.09554886167218
H           -6.69669557994412        2.19384246362294        2.43573246327303
H           -6.93728905889971        3.76449380777931       -1.57936303141782
H           -7.60099026570640        4.66077540136608       -0.21323896592959
H           -5.85295616342432        4.51227930383965       -0.40627513885752
N           -6.74636507769636       -1.32095925740968       -0.80075607613077
H           -9.10306397290691       -0.28157982763569       -0.65641738852395
C           -7.78261364035025       -2.20184149095578       -1.27012036926893
H           -7.27636533265608       -2.91809583797504       -1.92757079806956
C           -8.51587737627415       -2.97083889145788       -0.16213452038154
C           -8.82446675843440       -1.47534401299962       -2.13507360622226
H           -9.08414726477525       -2.30179253070195        0.48026364607166
H           -9.19513799755933       -3.69106565295060       -0.61134186046647
H           -7.78821620745042       -3.50149237866320        0.44755201001994
O           -9.42751647762614       -0.43302469356995       -1.56409623260008
O           -9.10119732090894       -1.83391149169668       -3.24393781397483
