42
 energy: -62.486133506778 gnorm: 0.000481372799 xtb: 6.7.1 (edcfbbe)
N           -0.97527214771898       -0.44523901066707       -1.01242162972317
H           -0.31343308024911       -1.01881341956656       -1.52135909782892
H           -0.61570349928845       -0.32826189021140       -0.06858483684097
H           -2.00424648363997        1.17303951781073       -1.23264678616937
C           -2.29001265553258       -1.08535135808096       -0.96443285453680
H           -2.53885590159170       -1.39099384810939       -1.98902448652623
C           -2.37893653837299       -2.30019925993971       -0.04506364660403
C           -3.30740831124017       -0.01369873977540       -0.58555028965685
H           -2.10595629879228       -2.02318606552807        0.97087618207158
H           -3.40045388649073       -2.66324581657746       -0.03874561833845
H           -1.71349520536236       -3.08950813881045       -0.38902155264400
O           -2.91681786592207        1.23948162378852       -0.88588507115569
N           -4.38248050993842       -0.37485978883490       -0.05294778867512
H           -7.06256252312550       -0.12542449406398        2.10885861690034
C           -5.49000775377507        0.46863636282039        0.32055981700679
H           -5.33843333474019        0.75268541311273        1.37305293599197
C           -5.70652279840834        1.73119762312155       -0.53265797055911
C           -6.72604237759718       -0.40048146189398        0.20676068308590
H           -4.82640002240640        2.36889410487877       -0.45666105722642
H           -5.80229986177978        1.39542358612944       -1.56628534286354
C           -6.95080717248239        2.53820542831927       -0.14522493421934
O           -7.48941253227781       -0.54608023540704        1.35324684179634
H           -7.81827014851896        1.86988825450282       -0.10800253385085
C           -6.78859609605996        3.21735732921488        1.21395103882366
C           -7.21893224044961        3.59212209415120       -1.21786015994567
H           -5.92360049508727        3.87729062273186        1.20310458048162
H           -7.66966447309358        3.81191111639753        1.44440169012844
H           -6.65579124786294        2.49543053967197        2.01701536907224
H           -7.39029864155652        3.11861406828078       -2.18107825858534
H           -8.09834753868728        4.17951901474766       -0.96444247120384
H           -6.36871943258337        4.26471017767107       -1.30940864818870
N           -6.99791189934170       -0.92651056284766       -0.89180170695362
H           -9.10594857598991       -0.45474812276430        0.54145046778284
C           -8.10600126402425       -1.79191799292394       -1.19986468840335
H           -7.91104618787194       -2.16128468328703       -2.21338196336942
C           -8.26289485881039       -2.98859672943163       -0.25169132966459
C           -9.43948404811589       -1.03123128996256       -1.26207581198145
H           -8.51826447244707       -2.66975882194563        0.75640542485500
H           -9.04550836543850       -3.64518190222884       -0.62382233679704
H           -7.32578458720511       -3.53914808724380       -0.21303661441204
O           -9.77863091599283       -0.36253273157373       -0.15944299772852
O          -10.14693501265855       -1.05017816726724       -2.22832603147692
