42
 energy: -62.486133524173 gnorm: 0.000478640050 xtb: 6.7.1 (edcfbbe)
N           -1.75318704407654       -1.61545727729891        1.20164951045061
H           -0.90032364446432       -1.17840683583204        1.52402863891049
H           -1.58428338925139       -2.60692176793801        1.09320060063267
H           -3.34680403912850       -1.08278291652023        1.96798956892359
C           -2.24967193181637       -1.01788247046997       -0.03994638711464
H           -1.56478552144372       -0.25280597930617       -0.42147829349136
C           -2.47977101069950       -2.06335416093156       -1.13003380982156
C           -3.57648242582149       -0.33241511327746        0.28333161128045
H           -3.19081720477294       -2.81279550971592       -0.78721529996907
H           -2.88191140559562       -1.58006832438966       -2.01495599261998
H           -1.54388456741395       -2.55434009508473       -1.39053738861282
O           -4.03785847222322       -0.54225575970780        1.51731392826541
N           -4.13927799274042        0.36243047566334       -0.60506158033513
H           -5.59564147843248       -0.29004216965513       -2.32104510935001
C           -5.43583982535681        0.96394574328033       -0.33034453817866
H           -5.53872146527904        1.23292050165646        0.72617460995914
C           -5.60621090435063        2.19406844884575       -1.22954737985658
C           -6.45951424107709       -0.09918988317360       -0.64517069166039
H           -4.89660206220197        2.95477857448179       -0.89955715884917
H           -5.33078606932935        1.91866904500188       -2.25125808445436
C           -7.02510585733847        2.77297261854483       -1.22514664505111
O           -6.36515862474350       -0.66124399527408       -1.86675696077828
H           -7.72625754754578        1.98603640745357       -1.52588136023466
C           -7.42720103628366        3.26951665691736        0.16098567331874
C           -7.11275651646052        3.91248537798511       -2.23907995573343
H           -6.71447245500073        4.00878491271628        0.52018615350039
H           -8.41032971248804        3.73213227627088        0.12179064888346
H           -7.46932694817214        2.44817117325240        0.87030882550361
H           -6.85392946797774        3.56551263370228       -3.23706023118920
H           -8.12126239719960        4.31716973030304       -2.26962294493111
H           -6.42966767254162        4.71432411601585       -1.96647570751539
N           -7.29588697191279       -0.44899307977649        0.22707201723896
H           -8.15783658760176       -0.14524140453552        1.79214759381906
C           -8.25566023130131       -1.50312321567579       -0.01640962389776
H           -8.72544308735476       -1.41057230610174       -1.00370651718115
C           -7.60846983525187       -2.88825844777077        0.09654085073663
C           -9.34110411437153       -1.38630697156531        1.06366298292954
H           -7.08247082390148       -2.97234266878441        1.04557695356479
H           -8.38041148904227       -3.65100044829283        0.04595272990503
H           -6.90131865835678       -3.03372346690231       -0.71637776324333
O           -9.03035643883349       -0.53609482042998        2.03421154750840
O          -10.35939008453999       -2.02032540843986        1.03948003356219
