42
 energy: -62.486133506462 gnorm: 0.000481220498 xtb: 6.7.1 (edcfbbe)
N           -1.54891364095919       -0.92775393529370        1.10158967330816
H           -0.60471081222289       -1.24133470484768        0.91343468906639
H           -1.94973148489097       -1.56016454129153        1.78911244736066
H           -2.53302640717611        0.65292805517839        1.54585171411116
C           -2.36017674808166       -0.94370783125400       -0.11527858014068
H           -1.76254740376503       -0.48645877740487       -0.91423128110489
C           -2.81752786198363       -2.33200389896243       -0.55751633715307
C           -3.55031404686493       -0.02569410874356        0.12651836769732
H           -3.38335059298999       -2.80909812387170        0.24015326387731
H           -3.46392677852982       -2.23852807745834       -1.42326279332545
H           -1.96136895633583       -2.95516742580310       -0.80840691625818
O           -3.39365354495553        0.85723611067810        1.12605116674105
N           -4.57050465541535       -0.12632502426109       -0.60160590300253
H           -6.84645066631723        0.33123961741987       -2.51825589800775
C           -5.71102513658201        0.74747199341973       -0.38700047169235
H           -5.75871942449056        1.05660402174498        0.66484424230329
C           -5.60357367796429        1.99078422675634       -1.27726324570509
C           -6.91527439814086       -0.12542179676334       -0.66592604705927
H           -4.72863548056510        2.55133595972920       -0.93984418957343
H           -5.39901524081255        1.68509733593077       -2.30953458368656
C           -6.83302196285750        2.90764857731218       -1.23320540914766
O           -7.38295579966907       -0.20862514733286       -1.92441882387286
H           -7.72083714765447        2.34631693007225       -1.54613353116075
C           -7.08223722705809        3.44247562834342        0.17524805574624
C           -6.63095310588604        4.06757628907450       -2.20779535457472
H           -6.18622371512071        3.92067651377060        0.56486543682187
H           -7.88418993138580        4.17687815330804        0.15911645387654
H           -7.37214045406391        2.64277110866746        0.85166752330432
H           -6.46488157695544        3.70411198775472       -3.22003395640408
H           -7.50610148197333        4.71257675986771       -2.21732543051639
H           -5.76994385098840        4.66313267218992       -1.91203656007717
N           -7.36415063287766       -0.82544930416837        0.28031867465815
H           -7.47819069109497       -1.15711550724091        2.04438610158073
C           -8.44553904038906       -1.76733059763713        0.09729693420025
H           -9.26987310191626       -1.33543903459698       -0.48385469943193
C           -7.97041770583096       -3.04958785568026       -0.59519989413972
C           -8.96347613098711       -2.13549257301832        1.49595434099560
H           -7.12140185343787       -3.46673351415495       -0.05751652775015
H           -8.78009730099861       -3.77383014286022       -0.60292653288362
H           -7.66871639319073       -2.82962060068036       -1.61572810659809
O           -8.19617871396811       -1.67803220386825        2.47827719470275
O           -9.95221647545205       -2.78997303223974        1.67854986836689
