42
 energy: -62.486133510341 gnorm: 0.000479641101 xtb: 6.7.1 (edcfbbe)
N           -1.71609792778003       -0.35371647803902        0.70490122157856
H           -1.03036362013683       -0.94778226606492        1.15906063917539
H           -2.35440047060180       -0.00345832957464        1.41163858782742
H           -3.27675389602514       -0.60201132153742       -2.52437489063040
C           -2.47269743086581       -1.11450426052235       -0.27100460446791
H           -1.82634258847369       -1.25172370369457       -1.15221770150839
C           -2.94004779863122       -2.49482158937852        0.22566327857107
C           -3.70049227043562       -0.32074727270551       -0.65735447849668
H           -3.58033508734401       -2.36452338606905        1.09479379483919
H           -3.50301206843276       -3.01527037776194       -0.54614146644773
H           -2.08048588781394       -3.10338585952556        0.49943121034768
O           -3.97664973664856       -0.20750945145247       -1.98965172890036
N           -4.41867859861800        0.13649536650806        0.26270264026703
H           -6.12829517748394        0.25532762583831       -2.26649378379264
C           -5.64036529743246        0.88992568090181        0.05609259271238
H           -5.95115035776985        1.17607514296478        1.06677171748766
C           -5.45800772325659        2.15021323011443       -0.79678619748411
C           -6.68719777812722       -0.07289046890716       -0.46698254342462
H           -4.70691712084442        2.77074968585293       -0.30237636845775
H           -5.05352230730489        1.88811301096821       -1.77828728398523
C           -6.74740452722195        2.96072844637524       -0.98089134428611
O           -6.81316908723461       -0.23934687235564       -1.79527554049095
H           -7.52340239658541        2.31183369246288       -1.40300441211869
C           -7.26021042484664        3.51974027698909        0.34414270972739
C           -6.48666226459371        4.10191944207712       -1.96373440662518
H           -6.48499301819502        4.10348226972695        0.83593456851942
H           -8.11616325091658        4.16714930842448        0.16843326431819
H           -7.57424035788589        2.72276035121248        1.01272283750616
H           -6.14822906064175        3.72058925453645       -2.92510659374758
H           -7.39403504976214        4.67794037684434       -2.12717261414136
H           -5.72273463866691        4.76996477693159       -1.57161235693391
N           -7.33625265574443       -0.74908668445519        0.37545358207080
H           -7.87449282425974       -1.03972804390749        2.08200460018413
C           -8.28402871685971       -1.76449922410950       -0.02652050805294
H           -8.96089706304350       -1.40154017146944       -0.81012326524745
C           -7.58361439627419       -3.03282420431485       -0.52769476227901
C           -9.11470219612040       -2.12736323024326        1.21382149814056
H           -6.86639385366714       -3.37692079476152        0.21519115564442
H           -8.32538240059101       -3.80876251302669       -0.69433923112523
H           -7.06116891351773       -2.82600267043570       -1.45833818952269
O           -8.64963302994096       -1.59374996490837        2.33632820346815
O          -10.07656798423838       -2.84286435016223        1.16933153687802
