42
 energy: -62.486133516126 gnorm: 0.000479626715 xtb: 6.7.1 (edcfbbe)
N           -0.90255360413861       -0.44823312034087       -0.02730303091117
H           -0.06305230493848       -0.73109417501829       -0.51797541771445
H           -0.92622364642038       -0.95537914609764        0.85327814869277
H           -1.88547589889929        1.17502252393474        0.42763243724560
C           -2.09580311296434       -0.76614497404177       -0.81197833505005
H           -1.92242360454711       -0.39272318356118       -1.82976818140357
C           -2.44980689411432       -2.24911335427956       -0.87614562409399
C           -3.24004896109881        0.05782139248346       -0.24422338835833
H           -2.57564466513397       -2.64879920070454        0.12797862349922
H           -3.38602026338666       -2.36695510827557       -1.41028487797185
H           -1.66632792483111       -2.80749194589293       -1.38466844090903
O           -2.86206874449586        1.18503259412321        0.39291355436992
N           -4.42622525678482       -0.32553757295900       -0.39682896034267
H           -6.40051508534662       -0.55495089594288        2.08768399287334
C           -5.52861782623132        0.48507234875846        0.07693717606627
H           -5.29730204313330        0.90616767230895        1.06850394399655
C           -5.80378546336441        1.63000212946427       -0.90835996277479
C           -6.72568356013752       -0.43113006192995        0.17021715267219
H           -4.89072748716894        2.22059490475221       -1.00355158469908
H           -6.02833351323035        1.16873751299534       -1.87003545676698
C           -6.96420195331681        2.54135517468541       -0.49826675765028
O           -7.05585113591656       -0.85583868134003        1.44681338745358
H           -7.85334385319039        1.92332650861397       -0.33454645997388
C           -6.65803239496742        3.32023474220605        0.77980508798652
C           -7.26307445099543        3.51355058108851       -1.63789068666886
H           -5.72715566099532        3.87336570945759        0.67225370035012
H           -7.45684359484999        4.02860185390367        0.98682684108840
H           -6.56894930200556        2.66160525063454        1.64044754486981
H           -7.51769271782870        2.97047361148928       -2.54407383363131
H           -8.09947114427572        4.15824502742703       -1.37869438062191
H           -6.39610369174699        4.13924963315294       -1.84036191441164
N           -7.33105201756763       -0.77453024070764       -0.86535363051815
H           -8.85889772014548       -0.73456611751557        1.21174257681621
C           -8.44607651283002       -1.67844927950535       -0.96779704436729
H           -8.57854093567915       -1.85399840284645       -2.04159919800016
C           -8.24692523320514       -3.02582398279472       -0.26014424347223
C           -9.75176342143654       -1.04623642703256       -0.46237957880318
H           -8.19249664986310       -2.90694733700285        0.81964426554622
H           -9.07596084478535       -3.68656281249534       -0.50128946758001
H           -7.32001440631201       -3.47755235137516       -0.60540003462526
O           -9.72764622789821       -0.59304947968046        0.79161139724165
O          -10.73945753044912       -0.97937712870362       -1.13643424853102
