42
 energy: -62.486133507466 gnorm: 0.000481292853 xtb: 6.7.1 (edcfbbe)
N           -1.30595009211551       -1.11856897318942        1.00983390670851
H           -0.33057846797870       -1.32605050523519        0.83315157000832
H           -1.72318294058197       -1.94437929527154        1.43078356282301
H           -2.42519671260198        0.24561065621960        1.79366363979303
C           -2.00545383808254       -0.78768861561050       -0.23016521387821
H           -1.38825141715426       -0.05411060740850       -0.76556384062237
C           -2.27727609475207       -1.98046857840811       -1.14512215912188
C           -3.29220696737527       -0.07604179690070        0.16380863452012
H           -2.91604670257422       -2.70238381439764       -0.64052214470829
H           -2.78195953979868       -1.64548038640518       -2.04480436998580
H           -1.34278938401510       -2.46534199720944       -1.42103760587073
O           -3.27379122077329        0.49545505005055        1.37608431313328
N           -4.25846248428889       -0.04236968488663       -0.64152325256622
H           -5.53926673122641       -0.72258106781906       -2.17964210802469
C           -5.49910221725997        0.62494772296552       -0.29698901757846
H           -5.56577310408693        0.85259504590769        0.77144936796599
C           -5.62839304306110        1.91415017012864       -1.12427221577588
C           -6.58637389535955       -0.35470994110349       -0.66910096441562
H           -4.83148150146508        2.59379158697411       -0.81487970138741
H           -5.46165933683531        1.66609795826109       -2.17629922398291
C           -6.98574723483296        2.61009808013019       -0.97942597343971
O           -6.42628587970174       -0.95488158202014       -1.85922782788719
H           -7.77484184084278        1.89271503344379       -1.22967676264111
C           -7.21797771986155        3.10742078391719        0.44458157820550
C           -7.06290474577016        3.77819605421705       -1.96150688773271
H           -6.42389538148919        3.78936544274381        0.74185537286186
H           -8.16577783894216        3.63651906560588        0.50528396774102
H           -7.24914062728842        2.27989618157148        1.14723951317676
H           -6.93180988009458        3.43466474956486       -2.98525947713628
H           -8.02912169734472        4.27095544851392       -1.88826654329357
H           -6.28761978858187        4.50948562783754       -1.74199641250596
N           -7.52276665515491       -0.60044316822033        0.13647262474715
H           -8.58705791593449       -0.02178966750410        1.48537152346728
C           -8.56739504950980       -1.54851698970201       -0.18727860999354
H           -8.86478902652170       -1.49020106340587       -1.24187611273259
C           -8.13083348785712       -2.98391910397196        0.12477848646850
C           -9.78242722068863       -1.20741084437637        0.68777881972544
H           -7.78208871345310       -3.04938908798482        1.15349376888796
H           -8.97627086014437       -3.65289708143287       -0.00879653745768
H           -7.32526578995672       -3.27928009594343       -0.54300979174445
O           -9.52639346325910       -0.29237904245983        1.61489064059747
O          -10.85258475063580       -1.73270749537537        0.55465644772262
