42
 energy: -62.486133514966 gnorm: 0.000479448090 xtb: 6.7.1 (edcfbbe)
N           -1.71771392967613       -1.59215138616103       -0.84354363047672
H           -1.66237544375552       -1.95532752385117       -1.78566476739005
H           -1.36871066197580       -2.30340987266305       -0.21114436483033
H           -1.18243368499941       -0.05094509000477       -0.04960569384599
C           -3.08196308541018       -1.19162513507689       -0.47957988021870
H           -3.72043747406347       -1.22570926551105       -1.36521928049307
C           -3.66848859063313       -2.09498121861285        0.60847881963952
C           -3.01461741870224        0.24954752285517        0.08925410504585
H           -3.03776918261945       -2.06065245496294        1.49570394481413
H           -4.66403003057033       -1.76198992574786        0.88740292196777
H           -3.72968540662931       -3.12382609977882        0.25602878457293
O           -1.76326074381226        0.65068353621450        0.32683191629784
N           -3.93888164232077        0.99890263364713        0.48936034220143
H           -5.18566824197569        0.32290656811105       -2.06106169655964
C           -5.33756757251526        1.10297197080257        0.23484454567825
H           -5.79697684919154        1.25223100718926        1.21912396007659
C           -5.54594721923698        2.38681700907762       -0.59843386424181
C           -6.07838739963050       -0.04977210851811       -0.40986603273849
H           -5.10104722638297        3.20516275216306       -0.03204549383092
H           -4.97841747032033        2.30566356203986       -1.53191717995251
C           -7.01007407628320        2.71069378202496       -0.91706011806014
O           -5.77967961939440       -0.34765569547334       -1.69810796838459
H           -7.44905887247434        1.88201728364443       -1.48517806460936
C           -7.83406225721892        2.90992735870666        0.35218827697200
C           -7.06615528948021        3.96822035499326       -1.78367769583920
H           -7.36796651694556        3.65411245149489        0.99357274356194
H           -8.83364307273003        3.25334191909009        0.09701777169819
H           -7.93027548571815        1.97977572189842        0.90497444437174
H           -6.49506147942508        3.83735875950139       -2.70067032561069
H           -8.09415792602799        4.19764735088991       -2.05263897041755
H           -6.65510456896442        4.81701393613959       -1.24187445589606
N           -7.01874103312688       -0.60696697334597        0.21649092739186
H           -8.22247548611664       -0.60207409602603        1.60680441067176
C           -7.84754250746830       -1.61964029893735       -0.39853894572049
H           -8.09428415597099       -1.36242104660742       -1.43697849712681
C           -7.18506451457478       -3.00126806583972       -0.38124285304995
C           -9.14924049725050       -1.70054427516188        0.41275088475321
H           -6.89266980293970       -3.26309018182924        0.63383692735229
H           -7.89313391503384       -3.73897730620099       -0.74810882951243
H           -6.30443715457020       -2.99878232305416       -1.01864231394248
O           -9.10248465299586       -1.03877807249277        1.56301571813860
O          -10.10641439818072       -2.32209044422483        0.04613258864048
