42
 energy: -62.486133511666 gnorm: 0.000479980937 xtb: 6.7.1 (edcfbbe)
N           -1.69143429274461       -1.11577178416268       -0.24322674197679
H           -1.11626742560201       -1.94716537861251       -0.18570654755673
H           -1.21428979683709       -0.37793287790983        0.26777784008977
H           -2.64158474396735       -0.12185745037332       -1.54757694363113
C           -3.01129449431422       -1.35104442399832        0.34385691630212
H           -3.36790206998733       -2.31950680029353       -0.02796419148733
C           -3.03646098360828       -1.36187363821949        1.86947521579831
C           -3.96011388673033       -0.29963215256321       -0.22794245671524
H           -2.66092924766884       -0.41676712389931        2.25721261269154
H           -4.05727959556641       -1.49256081665596        2.21042044354299
H           -2.42099682933229       -2.17249894651526        2.25397697578455
O           -3.53013316999505        0.25642125913591       -1.37814449214466
N           -5.03719333613240       -0.08905907670023        0.37508605669494
H           -8.08196605926440        1.31153468528847       -1.40446257517731
C           -6.10648229645219        0.79686301089836       -0.00334304167293
H           -6.40115351838801        1.28190109944346        0.94099194852181
C           -5.82397739738592        1.89211084426544       -1.04947492653926
C           -7.27378334072617       -0.10377130788217       -0.38282561372964
H           -4.76038483057386        2.12503381990403       -1.01973865768139
H           -6.02671520186896        1.50395582783988       -2.05181623416183
C           -6.60069609347207        3.19686580755204       -0.79949739461652
O           -8.26880965122831        0.40135195474333       -1.14114023134388
H           -7.61964465529186        2.97669864830283       -0.45299561014628
C           -5.91741843176251        4.02407335581183        0.28829093104988
C           -6.69554687132975        4.00826032605690       -2.09097313837755
H           -4.92743995063008        4.33306002604329       -0.04011861639140
H           -6.49881987909332        4.91597757303536        0.51099302171418
H           -5.80943415150572        3.44964724637903        1.20545529720276
H           -7.23140670494696        3.46043741206458       -2.86424614372299
H           -7.21787435160674        4.94584815254368       -1.91488294179935
H           -5.69964284319839        4.23617140404135       -2.46403454222162
N           -7.26934916222483       -1.28315800478138        0.04837535705497
H           -6.45647131173735       -2.46152453200026        1.08261909528724
C           -8.29999765008435       -2.25528817920457       -0.20984572732009
H           -9.28975375987688       -1.88042569128797        0.08162294286536
C           -8.35180003293291       -2.69710392551049       -1.67579327941762
C           -7.96204434181753       -3.47721827718077        0.66572322650348
H           -7.36069369411889       -3.00467825836291       -2.00359333279427
H           -9.03430989738513       -3.53702832631489       -1.77020863113811
H           -8.69510500261224       -1.87816154440635       -2.30234976667208
O           -6.81081847233212       -3.35926395407321        1.31214363392332
O           -8.66877188098393       -4.44494587284661        0.73681563225466
