42
 energy: -62.486133501093 gnorm: 0.000481003611 xtb: 6.7.1 (edcfbbe)
N           -2.34600398581926       -1.25790929080086        1.77875223720181
H           -1.88485578237796       -0.42474095956403        2.12787044539739
H           -1.67083597104188       -2.01286158645807        1.76942424399644
H           -4.18773985721724       -1.10189655711452        2.31263745660404
C           -2.89533346156677       -1.03202615808431        0.44332838894686
H           -2.24932217727626       -0.43351595668262       -0.21292276259567
C           -3.19171741158775       -2.37677569234334       -0.22408128608131
C           -4.21917126537179       -0.31036952675519        0.61603786855396
H           -3.81153295511278       -2.98975097957989        0.42652621060703
H           -3.71819672372693       -2.21010597887802       -1.15878974948682
H           -2.26528987182619       -2.90887975359615       -0.43017386326766
O           -4.83356645480415       -0.58193008980496        1.78495615818292
N           -4.61049606120510        0.48213247448315       -0.27502634683190
H           -8.24527895010126        1.44360950250660       -0.85569671835255
C           -5.92195576734748        1.07721559197053       -0.29221709205994
H           -6.06018660884512        1.68574757757320        0.61903735787870
C           -6.01326830721367        1.98408460044814       -1.53738973162041
C           -7.04691140205399        0.05965523849602       -0.25328283679387
H           -5.00239732081346        2.06351713654941       -1.93830704156519
H           -6.61929422807774        1.49634510874702       -2.30561780057241
C           -6.55177783331804        3.39484491727589       -1.25757151192681
O           -8.27396020472504        0.51129672052708       -0.60710057258938
H           -7.43425111451038        3.33565475081971       -0.60464030015791
C           -5.49794814520392        4.24161850324081       -0.54774141371191
C           -6.97152232497290        4.06610618257760       -2.56418951996990
H           -4.63773981338726        4.38826303069799       -1.19656954797933
H           -5.90338063699531        5.21659499204538       -0.28662865535699
H           -5.15625607389226        3.75706183585547        0.36349886290277
H           -7.76132638135252        3.50370283450896       -3.05855566683139
H           -7.33739786109879        5.07256667682514       -2.37463440652328
H           -6.12351102357880        4.13181537179867       -3.24168476814998
N           -6.84687819595786       -1.12245283331987        0.11936732969394
H           -5.96425406167539       -2.14102976563064        1.39430394787230
C           -7.90417411623159       -2.10523090252856        0.15621242322573
H           -8.82031699011613       -1.69478226667870        0.60457704516241
C           -8.23639760608859       -2.63721270970308       -1.24008450312372
C           -7.42753515100162       -3.26639485598740        1.04153966549137
H           -7.32377742155380       -2.95869526207433       -1.73775481892831
H           -8.90807831058225       -3.48565180426557       -1.14492329981507
H           -8.71154331608671       -1.86111323447008       -1.83434086404621
O           -6.26583921824127       -3.04962530255034        1.64300183737204
O           -8.05497093666820       -4.28090762520232        1.17778911829496
