42
 energy: -62.486132529056 gnorm: 0.000656104744 xtb: 6.7.1 (edcfbbe)
N           -1.90119507169383       -0.36555251868394        0.54481472092458
H           -1.15533951866801       -0.88877700449291        0.99314732170570
H           -2.33742481240875        0.21906231627551        1.25089895774831
H           -3.62294107680382       -0.85737350472468       -2.29264638888153
C           -2.90139629396044       -1.28322053569461        0.01613385781787
H           -2.44159487803325       -1.80049942147943       -0.83979164354071
C           -3.39661777253236       -2.32557945294408        1.02831808200307
C           -4.07282396222272       -0.45224591580522       -0.46263739415616
H           -3.86232423040939       -1.81789219322737        1.86811742998357
H           -4.13115119017345       -2.98487079852081        0.57406723971499
H           -2.56190171466382       -2.92651654042671        1.38431381997401
O           -4.30599130442703       -0.39009889676122       -1.79616323858252
N           -4.78209748787803        0.11740874353677        0.40296645481710
H           -7.62004277965655        1.18294686083375       -1.75611555740188
C           -5.92829850835882        0.93076684597899        0.05348983888472
H           -6.23993442464449        1.38813787525450        1.00304789150255
C           -5.62592906076486        2.04429990097191       -0.96109672510563
C           -7.04675625564000       -0.01101154688232       -0.36516188247484
H           -4.59672805541383        2.36888975207878       -0.79190938756654
H           -5.65851053102621        1.63910793974927       -1.97633840383403
C           -6.55553672063439        3.26255607391694       -0.82587224791790
O           -7.87299331065365        0.33446646646053       -1.37007333501932
H           -7.57281200657372        2.93035595080457       -0.58074859208891
C           -6.08292367534944        4.17724229544529        0.30260858232969
C           -6.60370029807279        4.03959017072678       -2.14163754086906
H           -5.10366785527672        4.58937820514576        0.06845200795788
H           -6.77823105540022        5.00219674196852        0.44016284972329
H           -6.00940805293179        3.63277824820225        1.24094991470234
H           -6.99442592856353        3.42653164046796       -2.95255935676065
H           -7.24101139730132        4.91507190381112       -2.04264775991669
H           -5.60567948369565        4.37331221448477       -2.41748709009771
N           -7.15618093971172       -1.08854235373108        0.27500883699365
H           -6.57165064986826       -2.10756350900447        1.61824429578406
C           -8.14254988803777       -2.09953434088856       -0.01548053497553
H           -9.15992988787996       -1.68879886862262        0.01161883128357
C           -7.91824680493923       -2.77424113908435       -1.37303692702003
C           -8.01254039917568       -3.16550145381625        1.08728974512250
H           -6.89251934975119       -3.13248039981820       -1.44167290357570
H           -8.59633774417647       -3.61745211911200       -1.46834699520304
H           -8.10119524712965       -2.06759305295388       -2.17804348330648
O           -6.99275973968551       -2.95483682528162        1.90835526714631
O           -8.75289192383234       -4.10594362824790        1.17639692805709
