42
 energy: -62.486133507645 gnorm: 0.000480057827 xtb: 6.7.1 (edcfbbe)
N           -0.74220675498391       -0.18499966902755       -0.16060047288050
H            0.09751552079393       -0.26888873104353       -0.71982306132883
H           -0.63400896361345       -0.79443240475201        0.64557007955986
H           -1.87620262328249        1.18784747207059        0.57019253507267
C           -1.92574521352051       -0.57529976641722       -0.92597999250187
H           -1.84825338433820       -0.10434378516963       -1.91402653742572
C           -2.10760841638090       -2.08123035200694       -1.10286836944997
C           -3.13089126398683        0.05613311759907       -0.24493475288905
H           -2.12981751630613       -2.57449709329043       -0.13249657034242
H           -3.04847858144281       -2.27080081496418       -1.60835325922719
H           -1.29164370380232       -2.49747100444539       -1.68981388864765
O           -2.85101609446850        1.10070297360707        0.55268154560052
N           -4.28351157004250       -0.39511439989298       -0.46928383200697
H           -5.30172386752445       -1.91351297526461        1.15310976989618
C           -5.45010453876300        0.23036882553145        0.12992989601826
H           -5.23706496852142        0.52653807517486        1.16957643346499
C           -5.85942756819295        1.46814027597055       -0.67629676448626
C           -6.51486160278807       -0.84298421714523        0.14312572399922
H           -4.97954626946838        2.10738291814403       -0.77460218986394
H           -6.14645782485611        1.12953853522187       -1.67246066806301
C           -6.99989667505289        2.27683519205302       -0.04877194857074
O           -6.22838385370076       -1.93689564771513        0.88291398293347
H           -7.78447494180381        1.58423433614367        0.26833053628260
C           -6.51892734520464        3.06697519136199        1.16663219226684
C           -7.58349401924064        3.23080642277128       -1.08964757715607
H           -5.73536136568000        3.76502604989574        0.87891435816865
H           -7.34099049941280        3.63346089504034        1.59808282863473
H           -6.12388641106194        2.40922999613794        1.93662005796153
H           -7.98067911032055        2.68208187535697       -1.94007202156825
H           -8.38931644276887        3.81867705284541       -0.65663466607415
H           -6.81642513206608        3.91439088597412       -1.44799965156874
N           -7.55841451049307       -0.73229028588842       -0.54786483338839
H           -8.46401302410789        0.12043905145263       -1.85000170011892
C           -8.56936182810303       -1.76142205454692       -0.59988131769519
H           -8.13049437529443       -2.76053233347140       -0.71528169981692
C           -9.45526738393914       -1.75290509312873        0.65098669748373
C           -9.45299137631357       -1.45754505168424       -1.82029554760654
H           -9.87593651327704       -0.76059912719724        0.80268928154870
H          -10.26489241161205       -2.46553881052073        0.52162290768191
H           -8.86704808934213       -2.02681641104304        1.52322226652836
O           -9.21363571674652       -0.26931439214657       -2.36091483745181
O          -10.29124503044729       -2.21340055972856       -2.22635986811856
