42
 energy: -62.486133508928 gnorm: 0.000479742771 xtb: 6.7.1 (edcfbbe)
N           -0.76953285678364       -0.58066551922986       -0.16564103031444
H            0.06420250313336       -0.64938967858027       -0.73625344937512
H           -0.76577379638887       -1.37106147870675        0.47375310418081
H           -1.72438910432724        0.70794741869110        0.88131900352924
C           -1.97613861449901       -0.61717482158674       -0.99289288057678
H           -1.80724390244178        0.04494469533241       -1.85138616497786
C           -2.36427061586846       -2.00520196665195       -1.49835624549129
C           -3.10231491743205        0.00891811849257       -0.18256069732721
H           -2.48738134105565       -2.68933509185051       -0.66027480512870
H           -3.30837047693471       -1.94059350004772       -2.02899625578528
H           -1.59893402298192       -2.39750538755377       -2.16476085818507
O           -2.70130796261780        0.76664809625013        0.85803478582500
N           -4.29482171949803       -0.19461497378129       -0.52152490830572
H           -5.45531470220482       -1.28285972517738        1.85669302812575
C           -5.39617478651608        0.43862218960670        0.17711275462584
H           -5.09104933631576        0.79635300121236        1.17347707709052
C           -5.88884585151763        1.61847501062333       -0.66902152552747
C           -6.43802766728059       -0.64449260248781        0.33457342852178
H           -5.05981950542643        2.32321166661290       -0.76711716856857
H           -6.12200732865716        1.23084073776450       -1.66090845973861
C           -7.11013821843270        2.34586530419327       -0.09916691394200
O           -6.26863476500487       -1.48800103925778        1.37901880589687
H           -7.89690863697273        1.60941596655542        0.08779308085769
C           -6.78487489685475        3.06188769947971        1.21019408353476
C           -7.62247399216940        3.35059388606695       -1.12989243534109
H           -5.95342586154462        3.74989825030024        1.07156793373157
H           -7.64661694505297        3.63136704945510        1.55071485167480
H           -6.52144217198332        2.35576389902170        1.99350548620753
H           -7.89367866872533        2.84812090713345       -2.05494517408958
H           -8.50043154399341        3.86950974256393       -0.75238381243697
H           -6.85644829042403        4.09091005292887       -1.35136631010411
N           -7.36484864552834       -0.77140866028147       -0.50366832150712
H           -8.02261506467873       -0.37980448164006       -2.13233776589318
C           -8.34282854028327       -1.83033611669935       -0.42657580750633
H           -7.88256060345664       -2.79800950542845       -0.19077656174571
C           -9.42221693490459       -1.52831886197582        0.61895177969207
C           -9.01483405621395       -1.92123461165166       -1.80627901230271
H           -9.86372636110100       -0.55245308346526        0.42648521650267
H          -10.19819008167500       -2.28622942500543        0.56158176500308
H           -8.98602593300604       -1.53111116257111        1.61476499636219
O           -8.68418847457008       -0.92690390123092       -2.61993623246221
O           -9.78156656196081       -2.79461391439824       -2.10358327927044
