42
 energy: -62.486133505992 gnorm: 0.000480835619 xtb: 6.7.1 (edcfbbe)
N           -0.81470299681550       -0.25863323944556        0.28286602202489
H            0.08655506008732       -0.51021670484338       -0.10467128939119
H           -0.88846302534653       -0.70032127285948        1.19523503741905
H           -1.92881070213981        1.29145036491499        0.56564787250756
C           -1.90381898476914       -0.71630467113696       -0.57817688685816
H           -1.65406606874243       -0.41172222976397       -1.60361562542317
C           -2.15002555499678       -2.22341956595962       -0.54414125793387
C           -3.14477815851073        0.07118420992389       -0.17812553675159
H           -2.42984992976052       -2.53385345299761        0.46012771894912
H           -2.95912975910079       -2.48404488031827       -1.21781237335589
H           -1.25120382933442       -2.75864557273733       -0.84434966474418
O           -2.89681446455477        1.23920475807218        0.43133529709907
N           -4.28463810436732       -0.40385073657534       -0.41817839663375
H           -5.36024590233878       -1.25117389783838       -1.81891910616754
C           -5.51502052339801        0.30283735397265       -0.12910096791311
H           -5.61765810006669        0.47600745556242        0.94610498252333
C           -5.60587895119016        1.64872058443111       -0.87657705656378
C           -6.62416518910590       -0.60612437117745       -0.61176164586663
H           -4.78312544119595        2.27944624706258       -0.53728072436500
H           -5.46371913628922        1.45246688918832       -1.94368207310695
C           -6.92784735154212        2.39609625953696       -0.67532465204768
O           -6.32235741837652       -1.34530694564168       -1.68812945750820
H           -7.75403654127727        1.74173456889742       -0.97016586073808
C           -7.12983867504604        2.80781754538827        0.78047147016201
C           -6.94681416573892        3.63157041755406       -1.57447114332915
H           -6.30612890202845        3.43598382169222        1.11382243551431
H           -8.05518537112327        3.36869335250907        0.88467742627471
H           -7.18921023689513        1.93818889319950        1.42879202100653
H           -6.83089086388839        3.35231979631746       -2.61942897371004
H           -7.88869615908807        4.16335083463649       -1.46642605525042
H           -6.13754321654368        4.30837430333666       -1.30731417095814
N           -7.71953333467282       -0.65052174153513        0.00976464641675
H           -8.94424467034288        0.26771053029218        0.99033589669352
C           -8.80883781540010       -1.49251685034328       -0.43485901558824
H           -8.85807368528880       -1.56585431790715       -1.52871046572286
C           -8.68741603909700       -2.90260795888952        0.15205622362173
C          -10.11274230473713       -0.86267143354876        0.07649460906983
H           -8.59188579476303       -2.84617411054472        1.23443836601263
H           -9.57624628513173       -3.47447543234283       -0.09899546180651
H           -7.80944085501422       -3.39770138348000       -0.25549946003677
O           -9.92005202300072        0.14481682726960        0.91982101412987
O          -11.19960978954331       -1.25386009798898       -0.24733870887351
