42
 energy: -62.486133538277 gnorm: 0.000476236322 xtb: 6.7.1 (edcfbbe)
N           -0.90834012157680       -0.54949287254452        0.07899464311682
H           -0.05858684589319       -0.78290434450388       -0.41995799537318
H           -0.94878483056963       -1.14076813557832        0.90493964692284
H           -1.88062166392324        0.98473087229293        0.71718093782246
C           -2.08626535863449       -0.78398929561896       -0.75667297989542
H           -1.87767795729293       -0.35514428286072       -1.74479674707439
C           -2.47537640256561       -2.25140759680711       -0.91852431953931
C           -3.23114329831808        0.02736883267488       -0.16848501996090
H           -2.63258622727702       -2.70718710859960        0.05746617134599
H           -3.40239204198705       -2.31189117663434       -1.47831998830856
H           -1.69504086552846       -2.79918623996569       -1.44287121064659
O           -2.85464690483932        1.03671784787464        0.64292639517744
N           -4.41592683606133       -0.25991273870661       -0.47068004569116
H           -6.32557367090384       -0.51395946899255        2.05783126563231
C           -5.51829803262602        0.53368728399978        0.02793510995682
H           -5.27809737586494        0.96363343605992        1.01402942472788
C           -5.81981577500828        1.66588896492420       -0.96357026923438
C           -6.70127101824312       -0.39753977020547        0.14903998775559
H           -4.91568736338099        2.26829255178912       -1.07259894853668
H           -6.04502474814098        1.19286375375037       -1.91908549699143
C           -6.99033561721635        2.56291443163844       -0.55060280824317
O           -6.98764831896897       -0.83325641613722        1.43266097470907
H           -7.86629483210874        1.93168429408133       -0.36808832554572
C           -6.68267097201951        3.36271762387151        0.71407300015570
C           -7.32018577185471        3.51497737854863       -1.69850445560780
H           -5.77090255818291        3.94222819544623        0.58363624058693
H           -7.49794700396469        4.04924586348426        0.93032978997535
H           -6.55715532723398        2.71508172912587        1.57842423601206
H           -7.57557304806237        2.95552247808850       -2.59447728367695
H           -8.16492600706298        4.14788041651721       -1.43750479840804
H           -6.46711575755580        4.15335621865483       -1.91950484349025
N           -7.32976615341797       -0.74480600625426       -0.87119251322362
H           -8.79627450049515       -0.74101694460276        1.25148781452810
C           -8.43850818172740       -1.65841379662603       -0.95069655127526
H           -8.60259956020313       -1.82176809642882       -2.02211350896738
C           -8.20195573700414       -3.01221591074731       -0.26730996964863
C           -9.73553424988170       -1.04755812736017       -0.39801605509727
H           -8.10245374404621       -2.90409551569283        0.81049779284569
H           -9.03628472823608       -3.67589909068510       -0.48050928103033
H           -7.28758740877326       -3.45392668094944       -0.65669720157617
O           -9.67925893465634       -0.60722990963359        0.85935898080674
O          -10.74405551058960       -0.98724833359393       -1.04109665391385
