42
 energy: -62.486133526185 gnorm: 0.000478417197 xtb: 6.7.1 (edcfbbe)
N           -2.09794447736233       -0.96676053232763        1.65677379263576
H           -1.16002548015600       -1.34627492118077        1.61089100491821
H           -2.64167219437639       -1.57292407655602        2.26577799162893
H           -3.03410314769069        0.67813179686152        1.94405436569678
C           -2.71289308880222       -0.93208454329253        0.32953652219767
H           -1.98436069591426       -0.47874469168991       -0.35559287721015
C           -3.13751948731782       -2.29530208640173       -0.21192010519988
C           -3.89315821090280        0.02428752733340        0.41325546392601
H           -3.78752605017619       -2.79780179857977        0.50116544938516
H           -3.68599417655346       -2.15689793821385       -1.13699729412821
H           -2.26553237169692       -2.91969124623785       -0.39605582807360
O           -3.82453119922577        0.91734711914421        1.41811206142509
N           -4.82689671785365       -0.06108440923681       -0.42361579595147
H           -8.13583927579325        1.25137910333934       -1.49149151838773
C           -5.96284757166089        0.83171624920247       -0.35599284830808
H           -5.99870425303752        1.34907005687130        0.61584523266352
C           -5.87443766054642        1.87628727278691       -1.48158145195345
C           -7.19495733371450       -0.04980786348690       -0.43798171860469
H           -4.81639963785049        2.07142740281798       -1.66706745523348
H           -6.27467485481488        1.44966587560236       -2.40595528351493
C           -6.56666270259479        3.20606684377636       -1.13975908232675
O           -8.29065513306833        0.38700448741839       -1.08941625333968
H           -7.50101752363700        3.01102160443732       -0.59697357592435
C           -5.67195963543286        4.05254954676738       -0.23597301480907
C           -6.90100908507654        3.97606745816479       -2.41667710738925
H           -4.77477751522348        4.35390383070547       -0.77242786799361
H           -6.19535275058555        4.94874344225696        0.08889564156396
H           -5.36869375959556        3.49360694921448        0.64589441553795
H           -7.58098646951125        3.41318888578327       -3.05392259785572
H           -7.37147516610463        4.92590279683384       -2.17410890965709
H           -5.99404574512957        4.17873241173593       -2.98168294473292
N           -7.13931157411443       -1.15195101052497        0.16393015289571
H           -6.11333739576407       -2.26480497049237        1.01967655139387
C           -8.19535015582967       -2.12968596499206        0.21831820164354
H           -9.10603921181320       -1.71187591707501        0.66569315755642
C           -8.54128613431630       -2.72304159701598       -1.15123802997884
C           -7.67301636858495       -3.26142031064121        1.12381887216510
H           -7.63757764288596       -3.09403841469373       -1.63059266581728
H           -9.23807337322141       -3.54577541847902       -1.01757595894420
H           -8.99305996458679       -1.96403505006302       -1.78414506338776
O           -6.39058005078764       -3.12312546212613        1.43782895637540
O           -8.35190605006162       -4.18099832246615        1.48821271648906
