42
 energy: -62.486133515579 gnorm: 0.000479617857 xtb: 6.7.1 (edcfbbe)
N           -1.10061874224478       -1.69891853448843        0.41754397000612
H           -1.04795449639649       -1.70217413940000        1.43058607782572
H           -0.15548356425117       -1.74252822949439        0.05530762481946
H           -2.71137026048391       -2.57406670007260        0.03252211383264
C           -1.79088107237953       -0.50304703341182       -0.06437597325401
H           -1.57239638324376        0.40088576843996        0.51870500399465
C           -1.43550639225759       -0.25023021792752       -1.52962625380546
C           -3.28895285877985       -0.77890062699781        0.02321384618526
H           -1.65188163635559       -1.13350384566305       -2.12727235258932
H           -2.02005836045566        0.58377273481827       -1.90602645854093
H           -0.37852908438178       -0.01179471488524       -1.62788166410384
O           -3.57751217883597       -2.11013307534745       -0.01500191771036
N           -4.06451681324999        0.19211758618203        0.08248603659356
H           -5.20657317126818       -2.06124482161580       -0.49159264286715
C           -5.48058172177507        0.40739405054338        0.12419356705118
H           -5.66976368142324        0.89062551898559        1.08856363564988
C           -5.70020404545937        1.46101016065822       -0.99818683409803
C           -6.50314588216350       -0.70884742776459       -0.03610469012315
H           -4.87703728816479        2.17180192837493       -0.90298001018610
H           -5.58612242375986        0.94905701016295       -1.95725788414376
C           -7.02220922049563        2.22902463553771       -0.99881399060737
O           -6.16946981051359       -1.91632411601692       -0.50074185909695
H           -7.84238121736020        1.51924848841605       -1.12708272973161
C           -7.23420833992683        3.00429588744544        0.29805207348833
C           -7.03523138185366        3.19099174479101       -2.18683265899897
H           -6.41310438375571        3.69933115670328        0.46227991192017
H           -8.15994532001040        3.57162779437995        0.24599149743285
H           -7.29690067833203        2.33436958435244        1.15109155797137
H           -6.89807156793565        2.65366566422958       -3.12235867007878
H           -7.98497428653683        3.71758944693869       -2.23276228232374
H           -6.23866339385154        3.92644765949275       -2.09273091437480
N           -7.70866764753948       -0.39181328133548        0.18789979212945
H           -9.00501355801372        0.82424976862728        0.62959794134997
C           -8.78145751541742       -1.34156377885860       -0.01400662456824
H           -8.69792861618276       -1.84789307650325       -0.98407854094625
C           -8.83262218097349       -2.40367974611563        1.09147928994640
C          -10.10062954817210       -0.55905703087315        0.02565439535924
H           -8.87737544665856       -1.92253571059400        2.06677575578429
H           -9.71848992492095       -3.01790511890056        0.95642019662914
H           -7.94683836255870       -3.03180420256242        1.04472041073836
O           -9.96850982033198        0.68215540440530        0.47915053086858
O          -11.15440898112836       -1.03372227042628       -0.29758540992374
