42
 energy: -62.486133525703 gnorm: 0.000478657746 xtb: 6.7.1 (edcfbbe)
N           -0.96787551546301       -0.47844590202944        0.44723031431142
H           -0.08551855362837       -0.85277080039253        0.11955946576818
H           -1.12691329635254       -0.84669317480360        1.38083174454736
H           -1.93239446798373        1.19541275146426        0.57651870928720
C           -2.06451323844591       -0.87856657038035       -0.43287748738654
H           -1.74776417499981       -0.65912426124604       -1.46132352402487
C           -2.46363131284840       -2.34820091240252       -0.32983152970613
C           -3.23701304051434        0.04430288624145       -0.12953660507249
H           -2.76632911989725       -2.58180891541834        0.68819672232577
H           -3.30453457218965       -2.54476967256575       -0.98554278550020
H           -1.62960113365317       -2.98883152088474       -0.60961552180346
O           -2.89562215239095        1.22742143524021        0.40753673288908
N           -4.40715804658434       -0.34074858830430       -0.37859007785908
H           -5.86445907267597       -0.46257657564730       -2.31399289163505
C           -5.57032029128138        0.49672560416614       -0.16302038211236
H           -5.69355199336293        0.69167179523340        0.90760785742420
C           -5.51222463454113        1.83380585888044       -0.92430395360112
C           -6.74178489571793       -0.33024623613350       -0.64098187299069
H           -4.75481203548326        2.46229863564784       -0.45472286075988
H           -5.18781735091689        1.64190026649814       -1.95261336438182
C           -6.85114367805235        2.57992463060232       -0.95290705885694
O           -6.71686515330006       -0.70892345795872       -1.93164691923524
H           -7.60453613054154        1.93950687581186       -1.42586106031199
C           -7.33237804742248        2.92957322390866        0.45263438084251
C           -6.70409098774563        3.84877240462638       -1.79138895119584
H           -6.56847761826334        3.49092377889839        0.98658367153983
H           -8.23134925420755        3.53893064406263        0.39831614627690
H           -7.56840083132552        2.03139393500590        1.01644461896649
H           -6.37917308727469        3.61170229117625       -2.80235087068896
H           -7.65374886152452        4.37435586329128       -1.85341719849009
H           -5.97130235831740        4.51579650603579       -1.34212287032145
N           -7.62935909380713       -0.68888468865545        0.17683421011276
H           -8.47662263763434       -0.47012138939650        1.76010372491145
C           -8.75029925493494       -1.51036937662360       -0.22693096724873
H           -9.16452908577009       -1.19222796182896       -1.19165000860598
C           -8.35920270953124       -2.98927581998094       -0.31971273179152
C           -9.83412882855289       -1.36170088367066        0.85077507533467
H           -7.91022325549949       -3.31319615892780        0.61698066206924
H           -9.24737266791587       -3.58362739967865       -0.51480770755791
H           -7.64203657444820       -3.13179931874674       -1.12387879614682
O           -9.41057278561766       -0.73092186165349        1.94004347842918
O          -10.94653945604756       -1.79261377448038        0.72636550992223
