42
 energy: -62.486133509622 gnorm: 0.000479628483 xtb: 6.7.1 (edcfbbe)
N           -1.56228074835501       -0.57074425423695       -0.05837131768004
H           -0.87536505793157       -1.30423893421452        0.08304060637721
H           -2.08593270655613       -0.44633106299618        0.80195566817636
H           -3.98497103859820       -0.18418223913957       -2.85794058896380
C           -2.49205051718960       -0.94464624147230       -1.10676492886156
H           -2.02753943049453       -0.68379895788854       -2.07152035429177
C           -2.85879627800267       -2.44118080304627       -1.11879273798372
C           -3.78616227517240       -0.17799619519221       -0.94507201570533
H           -3.29820297680771       -2.70987632884970       -0.16087733245715
H           -3.58488333763759       -2.65728644567043       -1.89960611430269
H           -1.96860231642170       -3.04346462357688       -1.28951477385834
O           -4.43626220872530        0.16056225288332       -2.07702973625441
N           -4.19087354164905        0.05292787257941        0.22283018853158
H           -7.68216251465523        0.66129098549705        1.48738472612622
C           -5.46406294677326        0.65865680170094        0.51506229794134
H           -5.45062144573900        0.83196910601535        1.60111367109433
C           -5.67550446997674        2.00150419093123       -0.21876432466955
C           -6.58099772528373       -0.31283074526091        0.20901215292416
H           -4.73297803318116        2.54890842123312       -0.13896170306784
H           -5.84370194883285        1.78206277150639       -1.27351444548139
C           -6.80952584970105        2.89863591968602        0.29063928846586
O           -7.77666235023549       -0.06503363337231        0.85932850019654
H           -7.76553329607339        2.36797553990019        0.21287954468769
C           -6.59455157115184        3.34995357576393        1.73538021420889
C           -6.90238602706830        4.12687067031243       -0.61575404968074
H           -5.64633145951592        3.87556467221854        1.82381172956172
H           -7.38968464903797        4.02797068936455        2.03845964137145
H           -6.58202670695779        2.51704332461539        2.43645638524670
H           -7.08804996985304        3.82997320468830       -1.64495885393591
H           -7.71329155997533        4.77688277880001       -0.29502933171550
H           -5.97438156251117        4.69320351515297       -0.58302936353321
N           -6.39123182867881       -1.26225622869077       -0.57928974613631
H           -8.82985788245168       -0.42361113999750       -0.60311794167221
C           -7.33394268287918       -2.26882675610815       -0.98683337972631
H           -6.74744440799183       -3.00640311096312       -1.54757381524700
C           -8.06230991377386       -2.97936863373537        0.16193273033956
C           -8.37402373079261       -1.69981309396669       -1.96428350237100
H           -8.70302055858604       -2.29622492005436        0.71519108080219
H           -8.67024800280200       -3.78557947895295       -0.24145921706414
H           -7.32963925960305       -3.39846190574494        0.84833893673775
O           -9.09355722435595       -0.67573528768691       -1.50755110756155
O           -8.54653925610328       -2.15609111229710       -3.05827150002305
