42
 energy: -62.486133502582 gnorm: 0.000481489689 xtb: 6.7.1 (edcfbbe)
N           -0.87048326261058       -0.07076699548110       -1.20745447374001
H           -0.13662037041173       -0.59574818610924       -1.66640239085705
H           -0.48056836698702        0.32509591902734       -0.35659494475285
H           -2.17480041212309        1.23153694238604       -1.62379027128737
C           -2.00921425180533       -0.92702968888371       -0.88229149200385
H           -2.21802992117893       -1.54224891186361       -1.76700963038026
C           -1.78243401016383       -1.83791391517070        0.32313304949461
C           -3.22180329613924       -0.01199920805372       -0.69518118958799
H           -1.61828561613880       -1.24142497067494        1.21820041495190
H           -2.64866823799434       -2.46984148836035        0.48621643881387
H           -0.91291876622251       -2.47089333817430        0.15571886763839
O           -3.08092869352965        1.19838556382943       -1.24940895806271
N           -4.21072344283849       -0.46304920878528       -0.06666825037706
H           -5.09808720406088       -2.11498125086223        0.17847471916728
C           -5.49727947210870        0.15319991295477        0.17600315749893
H           -5.54538839038592        0.28614838122298        1.26803630693117
C           -5.83446963880754        1.48416447649367       -0.50255825663428
C           -6.50518934293831       -0.93945623931798       -0.15893368665644
H           -4.94745816201053        2.11595505250915       -0.51004743492881
H           -6.11084458854162        1.28108100616622       -1.53828506342904
C           -6.96882771601995        2.24167164257497        0.20164717138132
O           -6.05780885271206       -2.19283401774983        0.00687486337432
H           -7.74328001361249        1.52500613020982        0.48802386233755
C           -6.46138628153651        2.94293676762892        1.46079658792944
C           -7.57571786958302        3.26990094961037       -0.75108984658824
H           -5.70730591127569        3.68456771743034        1.20447708851644
H           -7.28001141263982        3.44947222770024        1.96667872135991
H           -6.02119250104342        2.23595549061702        2.16034762296033
H           -7.99567129089151        2.78834790886720       -1.63068832862780
H           -8.36952368014714        3.82421830239988       -0.25588538615675
H           -6.81574872984743        3.97779736702114       -1.07633392908842
N           -7.66381197789133       -0.64371178313842       -0.55245353937193
H           -8.74089466893910        0.54349922575924       -1.40734614298310
C           -8.63706496580587       -1.65967002013327       -0.88185037973434
H           -8.17767558626285       -2.53839971306452       -1.35242743616965
C           -9.40889096671315       -2.11039382734671        0.36297884568271
C           -9.63293551637305       -1.02925590854953       -1.86613713120512
H           -9.84114251778430       -1.24705823639609        0.86502408791656
H          -10.20583117490819       -2.78673250377796        0.06714934076325
H           -8.73685616527790       -2.62006249274467        1.04906945098120
O           -9.50309581998504        0.28741032179483       -1.97898693384174
O          -10.45732219801946       -1.66490523834463       -2.46209051423515
