42
 energy: -62.486133514110 gnorm: 0.000480134844 xtb: 6.7.1 (edcfbbe)
N           -1.26866358108244       -0.49364848742603        0.30893331864480
H           -0.55416587116728       -1.14004603553533       -0.00174303301309
H           -1.09165727719958       -0.29079963683485        1.28901859927098
H           -2.06221758436288        1.11687066574678       -0.21645119337817
C           -2.60472731296766       -1.07559879508715        0.15950255766015
H           -2.63643853630348       -1.58935919739768       -0.80860580568964
C           -2.98304392557000       -2.05882055229222        1.26406675292645
C           -3.59772491047016        0.08038953576302        0.06883213592549
H           -2.96034572536468       -1.56061407792268        2.23136302394164
H           -3.98528296514810       -2.43531129451893        1.09556322632687
H           -2.28539714135763       -2.89395768170135        1.28004121801720
O           -3.03031873971019        1.27702004785767       -0.18583951209530
N           -4.81732469097036       -0.15815697126271        0.23419332430923
H           -8.15959754016719        1.66906626694887        0.48017849179021
C           -5.87754512381299        0.81543570204035        0.13313260603634
H           -5.83325443460408        1.50099849077459        0.99143526874386
C           -5.78497805507157        1.61879336229058       -1.18747761018439
C           -7.17499644001530        0.03679296509515        0.18653288012481
H           -4.78632889345135        2.05409245667382       -1.22807993221714
H           -5.86767215095842        0.89627866536299       -2.00342810567339
C           -6.79806715114896        2.74711915866622       -1.41283742400159
O           -8.32795132753046        0.72640383478134        0.36258656067516
H           -7.81427600178556        2.33913021895079       -1.44739177553983
C           -6.71080503796599        3.82408864923861       -0.33101062856824
C           -6.52122735029745        3.38052292212475       -2.77746926694293
H           -5.70436678230533        4.23618393467101       -0.29925143842528
H           -7.40432637232411        4.63353232854577       -0.54938757661674
H           -6.94637336707748        3.44289254507518        0.66170758952533
H           -6.59379160572003        2.63733798856295       -3.56789471396128
H           -7.23971745989530        4.17061668940538       -2.98352559018468
H           -5.52209439124916        3.81005557741400       -2.80068779331365
N           -7.13297906181793       -1.21585761896549        0.14762253005934
H           -6.09970132994042       -2.61705529694150        0.23813470984469
C           -8.27905445249321       -2.07966114287670        0.24338367880725
H           -8.93922004226549       -1.79721495773075        1.07387393903915
C           -9.09796906744420       -2.10839125660836       -1.05092015650751
C           -7.71904567155172       -3.49066959385589        0.50826299363936
H           -8.44910806728041       -2.33667052527911       -1.89404200796034
H           -9.86338668902659       -2.87542694936834       -0.97314910749876
H           -9.56816130421271       -1.14207072893317       -1.21524849945705
O           -6.39769129914334       -3.54812115514097        0.42608686263820
O           -8.41533071275845       -4.43821898716086        0.74944590730952
