42
 energy: -62.486133500061 gnorm: 0.000488101261 xtb: 6.7.1 (edcfbbe)
N           -1.63708608844574       -0.38316995766737        1.09348343273519
H           -0.76436780709038       -0.87355056890925        0.93792421464949
H           -1.90594901846852       -0.54371764747312        2.06063153880434
H           -2.46614853640519        1.34044106113366        0.75398003247487
C           -2.68304093054344       -0.89258301160829        0.20496066324148
H           -2.26242717418517       -0.90865889098368       -0.80965773872087
C           -3.20484955870552       -2.28308852397891        0.55520071910983
C           -3.79968601920883        0.13970975760527        0.19556261783996
H           -3.62934728222461       -2.28622605902480        1.55607977795148
H           -3.98393880773921       -2.56323888721614       -0.14428453501030
H           -2.39894891702405       -3.01278087639876        0.50886836385524
O           -3.40598207867002        1.39551123919264        0.48911522572819
N           -4.97229368870755       -0.21790430535639       -0.07205583449681
H           -8.29013073480511        1.37651176993968       -1.00815930465959
C           -6.06769748957704        0.71835861295210       -0.14924812640465
H           -6.13382061330677        1.29076116747524        0.79021804962517
C           -5.92670349340754        1.71164777464872       -1.32464057892003
C           -7.32763100404532       -0.11829723450523       -0.26874882312662
H           -4.86628345966673        1.80889112154766       -1.55997892107685
H           -6.40809269028196        1.28392295018368       -2.20895710271062
C           -6.48378225211362        3.11524857177082       -1.03266980810534
O           -8.45218126174514        0.46215914936554       -0.74400717665535
H           -7.40974281108503        3.03978223704723       -0.44580272905743
C           -5.48347016213783        3.92761431870014       -0.21323001998252
C           -6.80323324202925        3.83891829700870       -2.34011846354885
H           -4.58849750521897        4.12106144507097       -0.79980049038998
H           -5.91567799650247        4.88081444051065        0.08272048067856
H           -5.18644877004896        3.38835248475608        0.68211501903355
H           -7.55774460639949        3.30400131599286       -2.91444778631223
H           -7.17547901621642        4.84065498842086       -2.13843286671343
H           -5.90694828304219        3.92409382507620       -2.95037773395434
N           -7.28003301509135       -1.31182175223723        0.11503747173682
H           -6.28790449939260       -2.57507617369693        0.84088307490456
C           -8.38633059964104       -2.23217761473746        0.08799431750095
H           -9.26916740913119       -1.82280023624232        0.59584230630697
C           -8.78106633169238       -2.64301541383148       -1.33429038434360
C           -7.91336512745962       -3.48497159826064        0.84983893799993
H           -7.90355006556671       -2.99367987843134       -1.87371345890842
H           -9.51299141649723       -3.44434240867923       -1.28444754899727
H           -9.20782017985865       -1.79455890688658       -1.86278014015744
O           -6.62612351734906       -3.45213066686438        1.16210457165883
O           -8.64020783423707       -4.40269178280578        1.11622399658833
