42
 energy: -62.486132228084 gnorm: 0.000637950547 xtb: 6.7.1 (edcfbbe)
N           -0.94551202020602       -0.85981354308405        0.64963452123812
H            0.02864724202899       -0.89113857193203        0.37629751945941
H           -1.18192320293841       -1.76457863992964        1.04743862888608
H           -2.14043910965672        0.28519529001038        1.62055979714376
C           -1.80843885354534       -0.57533522082066       -0.49509630389561
H           -1.34856870611249        0.24715288312745       -1.05765376453155
C           -2.03383785457816       -1.75895997620452       -1.43554645741308
C           -3.12210651627161       -0.03893946886721        0.05894984750282
H           -2.47871713244572       -2.59279438310332       -0.89445711632693
H           -2.70232536648503       -1.46449248331513       -2.23803857562419
H           -1.08855463989068       -2.08581630399242       -1.86400799271086
O           -3.05179766315072        0.45206951630070        1.30310805107695
N           -4.15185582428933       -0.04450295113368       -0.66730570976641
H           -4.96398323660748       -1.72378643841293       -0.88540874370793
C           -5.42578892321287        0.44887385146340       -0.17758210150859
H           -5.37853718854986        0.71480750030431        0.88674387167323
C           -5.74239455072729        1.70427784755296       -1.01054900262597
C           -6.42612807381777       -0.68270321560708       -0.33521167067131
H           -4.93993200603215        2.41798350310356       -0.80448948237700
H           -5.67103248978116        1.42383024126884       -2.06362540899137
C           -7.08844766879359        2.38808367593220       -0.76422069493660
O           -5.90123131871993       -1.87865513994065       -0.65540726156905
H           -7.88016161270337        1.72966848963710       -1.12692652464093
C           -7.32240884296203        2.68110510899741        0.71484809643612
C           -7.14137200279335        3.68534315560140       -1.57085764082353
H           -6.51097450793049        3.28568126356299        1.11567369281360
H           -8.25278885311935        3.22879965976124        0.84485723816357
H           -7.38533108970290        1.75920737648808        1.28631910822815
H           -6.96970689545722        3.49051411023801       -2.62682200620697
H           -8.11586174457351        4.15506748001772       -1.46413155137293
H           -6.38351914254455        4.38452305012118       -1.22264944955903
N           -7.66579077445769       -0.47663545776217       -0.23238417729597
H           -9.14464472913270        0.59846356217984        0.10539132345507
C           -8.61225930069878       -1.55779360284635       -0.40611615048410
H           -8.40034405991116       -2.13881339429060       -1.31244825807060
C           -8.62569018735268       -2.51034132969268        0.79636696157553
C          -10.00911237068952       -0.93572950280019       -0.52164731976009
H           -8.80351590199771       -1.95062252729495        1.71286802703335
H           -9.41849581502570       -3.24178031336193        0.66653641927938
H           -7.67021577485279       -3.02281737678243        0.87243647256584
O          -10.06379469391745        0.32781016398186       -0.11658121321992
O          -10.96729785704536       -1.54443373309722       -0.90992996209487
