42
 energy: -62.486133504459 gnorm: 0.000481520179 xtb: 6.7.1 (edcfbbe)
N           -0.75879414347103        0.00482371942374       -0.58276495472564
H            0.04534986674957       -0.34215073587512       -1.09139310844018
H           -0.57451677630499       -0.12603104245786        0.40805719369607
H           -1.93461469352060        1.54997445461555       -0.58835043377520
C           -1.97132470385169       -0.71657332144669       -0.96380423615020
H           -2.01080469949331       -0.72098833152540       -2.06147536488633
C           -2.04835253751518       -2.15502860812858       -0.45634814131383
C           -3.15365716205041        0.12622639950674       -0.49694537275611
H           -2.06830274617842       -2.17152976929364        0.63141421010174
H           -2.94999008219484       -2.62929172027528       -0.82938357129405
H           -1.18533277587316       -2.72074827165887       -0.80206106180560
O           -2.89130216409079        1.43935271761963       -0.41477797663278
N           -4.23889063335633       -0.44818745209088       -0.23601429410350
H           -5.12939833431231       -2.09320166445783        0.34561068601892
C           -5.48375006476570        0.17615096843630        0.16480493406780
H           -5.43377874143197        0.34889472283538        1.25026891294176
C           -5.85358960960427        1.48525299347392       -0.54053033800148
C           -6.51663315799815       -0.91471685541721       -0.07228016687877
H           -4.96919595246010        2.11849674916448       -0.59834381372868
H           -6.16414300797401        1.23951884823924       -1.55737580265440
C           -6.96898978207246        2.26190182875590        0.17089779893110
O           -6.09696966331888       -2.15234548606425        0.23656516076870
H           -7.74430533455601        1.55584089834940        0.48107518427706
C           -6.43628654333023        2.98221780687754        1.40827882890014
C           -7.58492077085638        3.27713538409377       -0.79009059512363
H           -5.67135791961597        3.70302398075682        1.12640674886260
H           -7.24040136001564        3.51465037979702        1.91097432861469
H           -6.00104068414894        2.28379644673085        2.11917837798289
H           -8.01438880186937        2.78322801596817       -1.65814178567056
H           -8.37274689969997        3.83964415604511       -0.29485675018323
H           -6.82747041700256        3.97919375061434       -1.13290147740066
N           -7.63817196827252       -0.65155046614343       -0.57889837308529
H           -8.70549786281025        0.48397893652481       -1.49097283487350
C           -8.61087724512956       -1.68521540075452       -0.84973327783659
H           -8.14724564781708       -2.57356414250777       -1.29815566013258
C           -9.35822944760026       -2.10842088912251        0.41929192999079
C           -9.62532990575697       -1.09839772429189       -1.84256058402986
H           -9.79012343506706       -1.23565816388080        0.90528070837331
H          -10.15421799505207       -2.79839387165124        0.15399884744739
H           -8.67074671575292       -2.59454112827369        1.10702812961446
O           -9.48295171024565        0.20767275883143       -2.03300337722484
O          -10.47289903183224       -1.75646675551656       -2.37903363676533
