42
 energy: -62.486133510451 gnorm: 0.000480193820 xtb: 6.7.1 (edcfbbe)
N           -1.41320568618708       -0.72143184585387       -1.69743317191006
H           -0.78640199506933       -1.43803896187072       -2.04251373604898
H           -0.85915452353646       -0.06446948326432       -1.15497177949506
H           -2.84026066009988        0.40635978859370       -2.32895040527335
C           -2.45721009945733       -1.30180704252743       -0.85407824433268
H           -2.87630044362634       -2.15699912152205       -1.39968125866290
C           -1.98043722503546       -1.76699236650657        0.51911386172172
C           -3.58411900882598       -0.27620253628827       -0.75005467130228
H           -1.54472710255425       -0.93376404441063        1.06610402348434
H           -2.82708643090360       -2.14101432270778        1.08343749498724
H           -1.23516060187686       -2.55393513325302        0.41742506208204
O           -3.61795442808130        0.59806361362140       -1.76643032084210
N           -4.36302941324435       -0.35382653147140        0.23067966802402
H           -7.29486533783807       -0.15785376522626        2.05827668453962
C           -5.53054815136988        0.45469715644808        0.47609131419835
H           -5.48857584650146        0.68149844480042        1.55246498190415
C           -5.68515763629200        1.76098580101424       -0.31995631892523
C           -6.73575668218916       -0.42377669700613        0.21072269894571
H           -4.77660833873005        2.35360682989826       -0.20094201640985
H           -5.78257756329988        1.49236393682570       -1.37102410489283
C           -6.90082347891779        2.59368508125791        0.10522551851760
O           -7.62565296731017       -0.58227670684503        1.25745282699455
H           -7.77780626374278        1.93961344515211        0.17185727212463
C           -6.68453240588278        3.27215002884426        1.45731796747505
C           -7.18987504506049        3.64922612251033       -0.96025393955006
H           -5.83812356208165        3.95387123918547        1.40304709020484
H           -7.56624316827052        3.84468496849282        1.73720913983729
H           -6.48810366445043        2.55107475118979        2.24827300792089
H           -7.41811961519928        3.17563082487011       -1.91162838397941
H           -8.04033912052450        4.26202228890819       -0.66998003177903
H           -6.32695760599081        4.29777243287222       -1.09548608225754
N           -6.87123118783817       -0.94153243461031       -0.91734153949194
H           -9.13383030822982       -0.47263543503434        0.24756524551378
C           -7.93332393898059       -1.80385935296824       -1.36429434619647
H           -7.61506307327912       -2.16851473725434       -2.34781851499837
C           -8.21032303122148       -3.00375256487452       -0.44854901134649
C           -9.24575482909566       -1.03609629031386       -1.58658230325625
H           -8.58342486039019       -2.68816450198000        0.52324025425884
H           -8.94649857859483       -3.65294326832102       -0.91607922497096
H           -7.28844172597011       -3.56139029085414       -0.29973102492946
O           -9.71398552713111       -0.37116884317567       -0.53010013459977
O           -9.82860014542040       -1.04688617145954       -2.63268833765489
