42
 energy: -62.486133513491 gnorm: 0.000480500835 xtb: 6.7.1 (edcfbbe)
N           -0.70852106895994       -0.05755353109526       -0.58632221868532
H            0.08274758403319       -0.46053971138460       -1.07316442241066
H           -0.50886303881603       -0.09632670456176        0.40956260763222
H           -1.83432853729432        1.48723894356511       -0.70469209102960
C           -1.93713856449392       -0.79453785471109       -0.87663026144962
H           -1.98554548174452       -0.92149847725020       -1.96688431610192
C           -2.02520831437052       -2.16550188353326       -0.20700394051722
C           -3.10118401116058        0.12069307101718       -0.49857767739214
H           -2.10440595850346       -2.05465383974530        0.87236352091181
H           -2.89491424642239       -2.70779228245199       -0.56356514838444
H           -1.13554413815126       -2.74856481746107       -0.43871836909347
O           -2.79471726478940        1.42433054399013       -0.52037288222686
N           -4.20093799443012       -0.40169942441099       -0.19180401699040
H           -5.05935583667949       -1.93640885772666       -0.42627690704756
C           -5.46422978762429        0.24560226589669        0.09432403432388
H           -5.51935452873391        0.40867376841753        1.17856943084472
C           -5.64145372312566        1.58930732365573       -0.63305431499692
C           -6.51880087211968       -0.80227882595920       -0.26145659992751
H           -4.84760901458897        2.24944106480544       -0.28069834025817
H           -5.47656910101370        1.41290470291919       -1.69931184574485
C           -6.97778395705461        2.31501632291571       -0.45633702943146
O           -6.03732495397487       -2.02954669464911       -0.49011774138951
H           -7.74940716601794        1.75786398468545       -0.98996206309401
C           -7.37506036889485        2.44034352974579        1.01154665211509
C           -6.87263584213516        3.70199989033959       -1.09030645703020
H           -6.58870341009789        2.93709627186589        1.57694127837503
H           -8.28444022194244        3.02933850226203        1.10380906795856
H           -7.55631117459401        1.46186588733157        1.44813320442785
H           -6.58339433950640        3.62647868547879       -2.13586398424374
H           -7.83034355380527        4.21365668933385       -1.03730721895584
H           -6.13068047726171        4.30618318936743       -0.57179006728815
N           -7.74344785283991       -0.50682700396809       -0.33116990657036
H           -9.20640798452966        0.63501065802746       -0.11053396809790
C           -8.72318321375574       -1.51967422191398       -0.66743330124074
H           -8.42596767445964       -2.09081938075463       -1.55546264027557
C           -8.96145588398350       -2.49803572626564        0.49057499223746
C          -10.05107062983035       -0.80717455574253       -0.94645805438261
H           -9.24063522575312       -1.95068348993381        1.38907392382619
H           -9.76446886890091       -3.18001686045792        0.22585771081048
H           -8.05566545743567       -3.06541190813765        0.68643528871572
O          -10.09825111830735        0.43254795241471       -0.47109381295623
O          -10.97361798571096       -1.33207307547350       -1.50588710776437
