42
 energy: -62.486133510629 gnorm: 0.000480205888 xtb: 6.7.1 (edcfbbe)
N           -1.19956023179330       -0.53403514769099       -1.75792895839204
H           -0.41471820659120       -1.14021995556011       -1.96193599652874
H           -0.82485590670039        0.36487229603770       -1.46693289403602
H           -2.82874010270636        0.04706764555359       -2.53160922286970
C           -2.03510186751150       -1.09097238241806       -0.69583910739907
H           -2.17595785635290       -2.15704898509163       -0.91706667007132
C           -1.46190036643162       -0.94089235622889        0.71130443810429
C           -3.40641958494706       -0.42474380378815       -0.80824313268683
H           -1.28235528919182        0.10978039268132        0.93052987701189
H           -2.17424366077855       -1.32295064268528        1.43449447764199
H           -0.52516064686461       -1.48694759083504        0.80158838045187
O           -3.64863235743013        0.13892721942857       -2.00123336103169
N           -4.18498175179635       -0.48935389364259        0.17956564588715
H           -5.13350534213978       -2.02772302288126       -0.85411732447578
C           -5.51006247210776        0.09143799135330        0.24786583753215
H           -5.73471682979534        0.12915555098509        1.32103248584256
C           -5.56053040028186        1.52305457837508       -0.32084024849694
C           -6.53808630504342       -0.83382825916804       -0.38164283942257
H           -4.73218935011846        2.06545768539429        0.14447590700877
H           -5.37004808363954        1.47797149875929       -1.39365828827488
C           -6.85483300338213        2.30779697736777       -0.09521421602983
O           -6.09382715171702       -1.96248843762632       -0.96431920151157
H           -7.65049179627812        1.83156054922425       -0.67201378375134
C           -7.26665602128861        2.35502691427160        1.37345330852737
C           -6.66701044864740        3.72809588906123       -0.62923346166529
H           -6.46334419574511        2.76666881588700        1.98165184399708
H           -8.14341144348098        2.98705413846287        1.49284031219376
H           -7.51121825067542        1.36329159741413        1.74402135995022
H           -6.36964475620840        3.71066400412410       -1.67517830280649
H           -7.59529903698433        4.28776848257646       -0.54751785167249
H           -5.89965577258928        4.25204451414732       -0.06238371321140
N           -7.75968880153883       -0.52751050208171       -0.33000391854587
H           -9.14547836383629        0.59051858589730        0.17778763448720
C           -8.77540703316678       -1.37670883335285       -0.91390666623069
H           -8.51728482698518       -1.67004168732067       -1.93890952614666
C           -9.01834366399411       -2.64418478627675       -0.08464455821749
C          -10.08530950659508       -0.57764797545782       -0.93802508878149
H           -9.24095838808101       -2.37665525409696        0.94662654480704
H           -9.86155851356804       -3.18788597255346       -0.50136994708912
H           -8.13492064850218       -3.27673419702618       -0.10497603422655
O          -10.05795818959112        0.51342571760918       -0.18189084639279
O          -11.05212483928562       -0.92509310264955       -1.55766777132321
