42
 energy: -62.486133522806 gnorm: 0.000479037298 xtb: 6.7.1 (edcfbbe)
N           -2.09919730079151       -1.38495148935720        1.83274682781684
H           -1.16723893489289       -1.78141021152287        1.80731995819209
H           -2.72559193421094       -2.10691141643363        2.18048219396867
H           -3.05137467790186        0.18395351623487        2.41265213677191
C           -2.52655833143044       -0.97477913517363        0.49485553872943
H           -1.71763103202843       -0.36475118047270        0.06991952955496
C           -2.84130558754675       -2.12568929589019       -0.45748087945787
C           -3.71547582604914       -0.04365776602709        0.67424199819252
H           -3.54295338236243       -2.81738490194498        0.00384406341373
H           -3.29022697289340       -1.72842023140319       -1.36168119221388
H           -1.93170388950217       -2.66618657336290       -0.71181887050026
O           -3.77677790661851        0.56281379043531        1.87560203663469
N           -4.53052494924990        0.12709721659718       -0.26680424289297
H           -7.78205302679977        1.84711358525408        0.75848650955118
C           -5.63958174318336        1.04254645474422       -0.12301091193606
H           -5.47210996207027        1.76429488295776        0.69175007142341
C           -5.77197797842481        1.76587231560987       -1.47810373917828
C           -6.87885021694375        0.24077422216385        0.19728945272492
H           -4.80948473426776        2.23964792899482       -1.68177370306427
H           -5.91983842556552        0.98941570323423       -2.23009165463063
C           -6.88091626866167        2.81560643841680       -1.59999515172066
O           -7.96461616000718        0.90499670424940        0.65587408779553
H           -7.84830042312644        2.35383094360928       -1.37426137052490
C           -6.65207814286181        4.00328988023377       -0.66465665426337
C           -6.93843443278706        3.31184929548027       -3.04499894413151
H           -5.71245733708289        4.49400784662116       -0.91029431395801
H           -7.45409590895769        4.73027948101438       -0.77448875534650
H           -6.60871024065337        3.70661342583668        0.38175668661143
H           -7.13600350328388        2.48792165086286       -3.72625366290251
H           -7.72751571122026        4.05087930472936       -3.16246787981243
H           -5.99338297482997        3.77083003312288       -3.32689043187329
N           -6.83976350382041       -1.00895554926320        0.08266261160743
H           -5.80700884641603       -2.43085988025408       -0.09108014271928
C           -7.92901391814828       -1.88723162882538        0.42116942623019
H           -8.44358017118929       -1.57993182939155        1.34062980744613
C           -8.95302465778256       -1.98348584158646       -0.71444471525763
C           -7.30047615244415       -3.27466404077991        0.63595014447455
H           -8.45121544247627       -2.24114544976921       -1.64477151810202
H           -9.68271855032684       -2.75230384039268       -0.47675770568654
H           -9.45965455169707       -1.02922122004786       -0.83691562388772
O           -6.03763554909510       -3.34106833306377        0.23113250340327
O           -7.89513200457193       -4.20265049384749        1.10961139877558
