42
 energy: -62.486133511611 gnorm: 0.000480080660 xtb: 6.7.1 (edcfbbe)
N           -2.39703604101528       -1.44056782973371        1.71476717087930
H           -1.50124130529437       -1.91289303777200        1.73746820796845
H           -3.09094316809502       -2.08687621188179        2.08382831366868
H           -3.27767464117765        0.19133585987561        2.20008311924466
C           -2.75678063235093       -1.07158905234005        0.34606240571823
H           -1.89626614884700       -0.54671831002973       -0.08936175497140
C           -3.14262817704445       -2.24820020617668       -0.54759435745798
C           -3.89625061071148       -0.06973609111287        0.45140232522329
H           -3.96441787813722       -2.80045855270032       -0.09670029102608
H           -3.46788434466717       -1.87657835122847       -1.51306031980849
H           -2.29586276156457       -2.91828261075551       -0.68216539326095
O           -3.96450405217228        0.58436919315798        1.62388971363293
N           -4.69793953479586        0.06637476634925       -0.50755772804493
H           -7.70542359323142        0.92785627850248       -2.06272779098037
C           -5.83876588259117        0.95520245856804       -0.39640479330257
H           -5.88259410010064        1.42642911039086        0.59516159402662
C           -5.75403941669008        2.03307065735364       -1.48059151967114
C           -7.03390043155762        0.01940428755723       -0.51731443615135
H           -4.73777826401747        2.43234085838611       -1.46305538898751
H           -5.87973175075640        1.56796752156404       -2.46355589052410
C           -6.74772116251839        3.18882674204955       -1.27860514645662
O           -7.94403760707799        0.18753532844283       -1.48954450307751
H           -7.70648768221609        2.79399314898017       -0.92033418386505
C           -6.22541406746818        4.16858379685913       -0.22952441628955
C           -6.98557458765674        3.91976656854038       -2.59976276482283
H           -5.30520622763015        4.63547352989995       -0.57442840268683
H           -6.95746507890071        4.95070288008687       -0.04227050159007
H           -6.02074566033422        3.66188487211361        0.71011907757444
H           -7.41692341408567        3.25815670802847       -3.34920394909675
H           -7.66690562205755        4.75452559120223       -2.45370803863153
H           -6.04708791863840        4.30913904451314       -2.98835971455782
N           -7.06872071970719       -0.90751280307330        0.33266979160803
H           -6.07788155841381       -1.70476617176409        1.50124504282641
C           -8.00234212259012       -2.00053027682386        0.39558903388846
H           -8.97651644276037       -1.65425268725655        0.76373798614451
C           -8.20133510772140       -2.75112705196770       -0.92380058023736
C           -7.42130466000535       -2.97892394426021        1.43918268245226
H           -7.23304926250373       -3.01755311402943       -1.34366395946051
H           -8.76710527678576       -3.65849303721361       -0.73057522092031
H           -8.73766854380877       -2.13270951698057       -1.63763227777912
O           -6.25015710576806       -2.58742355622606        1.92782660827090
O           -7.96487869814335       -3.99977260052399        1.75740541210384
