42
 energy: -62.486133507906 gnorm: 0.000480929716 xtb: 6.7.1 (edcfbbe)
N           -2.07986827134075       -0.58103062539591       -1.54154113689562
H           -2.03249998048970        0.37319410687615       -1.88416293307565
H           -2.00461108237285       -1.20080188189991       -2.34035968054831
H           -1.42373998100330       -0.52840299981992        0.30325058902734
C           -3.34377928329168       -0.81017577473581       -0.83463476192040
H           -4.23097964716953       -0.46311801392826       -1.37543305198794
C           -3.48198138904697       -2.30764956566937       -0.55167350878961
C           -3.22582084477704       -0.08958548224856        0.50842505660618
H           -2.59117240275801       -2.67903389080264       -0.04889041730926
H           -4.34335007479079       -2.48374089628834        0.08456818888124
H           -3.61570658697284       -2.85683567556704       -1.48124293721621
O           -1.99020639976895       -0.17041068133938        1.01698435741480
N           -4.07890657193535        0.52587866673577        1.19971671922115
H           -7.18733994826087       -0.09922658178776        2.29382226603177
C           -5.44271208463636        0.86435853787409        0.91614439726475
H           -5.80514556327729        1.28611182317657        1.86663400447633
C           -5.52170926731440        1.96851085151580       -0.15892987928304
C           -6.38206002710839       -0.26052447197843        0.52842405844753
H           -4.77422944612467        2.72625082502024        0.08249975930238
H           -5.26063573348048        1.51757095910910       -1.11637651979969
C           -6.90479725824315        2.62102399887382       -0.27318205512233
O           -7.34036018915153       -0.57779931238129        1.46894812204546
H           -7.66693076448265        1.83413426881650       -0.30560539268071
C           -7.19640022899586        3.54558364860248        0.90692333489761
C           -6.98895724281273        3.40822096432267       -1.57958448606834
H           -6.45789342351038        4.34309872858584        0.95037942730174
H           -8.18047665344236        3.99498535459672        0.79660084939334
H           -7.17583472046315        3.01171254908421        1.85390381366855
H           -6.85494510703786        2.74804447940839       -2.43297569477378
H           -7.95981134614752        3.88893700806671       -1.67098499375144
H           -6.21946425996667        4.17678087856139       -1.60981986622564
N           -6.28828546213959       -0.82663970747651       -0.58338959516536
H           -8.74212647190627       -0.70583665757801        0.26191450888017
C           -7.13775284853304       -1.86475931458834       -1.10995153513969
H           -6.63386034039315       -2.21807275975729       -2.01707973337730
C           -7.40012011443609       -3.05983234904434       -0.18490279280711
C           -8.48518014093085       -1.27417183457469       -1.55772329500470
H           -7.93689501681113       -2.76677991548438        0.71425041916593
H           -7.98794952378244       -3.80133163750199       -0.72065197196800
H           -6.45551893234791       -3.51120338559787        0.11026400873900
O           -9.19686929921069       -0.68003993944392       -0.60018296708808
O           -8.87930121670991       -1.34916226008685       -2.68528816140643
