42
 energy: -62.486133508944 gnorm: 0.000481075865 xtb: 6.7.1 (edcfbbe)
N           -2.18129425342769       -1.48835989073439        1.77487123177716
H           -1.69593700126023       -0.74341315790865        2.26235173767812
H           -1.54461516123979       -2.26932464971212        1.67533209724472
H           -4.01194609809612       -1.29395086740211        2.30247797974333
C           -2.66496825871645       -1.03860676853885        0.47109209975883
H           -1.98500425523643       -0.34394563382687       -0.04086839451398
C           -2.91895266376068       -2.24632174309305       -0.43267490620425
C           -3.98910702781002       -0.32565614612458        0.69996687659020
H           -3.54370283723623       -2.97536077059369        0.07823143596416
H           -3.41930919762758       -1.92114480811338       -1.33958707366821
H           -1.97642703216426       -2.71961331611513       -0.70086674558861
O           -4.61790973775527       -0.67838120540833        1.83427197777325
N           -4.36984167525323        0.52396503909829       -0.14277942190784
H           -7.94444954415271        1.83998259793551        0.32592572168749
C           -5.65004789179371        1.18843938514639       -0.10206596375637
H           -5.64613092059999        1.92534150016462        0.71654273859041
C           -5.74382158321428        1.90842152929994       -1.46748960592057
C           -6.83554937484305        0.27599243819919        0.12253386956225
H           -4.77539416255698        2.39044503390576       -1.61127204350422
H           -5.83178082575151        1.13113366193172       -2.22882601169722
C           -6.84835047159509        2.94890008300838       -1.68028999882911
O           -8.03536591385659        0.88014595173554        0.30080095328026
H           -7.83160700177825        2.47005683749072       -1.61221638308973
C           -6.76640500452048        4.09649339401730       -0.67341523878284
C           -6.72142537598919        3.51028483579016       -3.09753489875492
H           -5.79655103909190        4.58419909466559       -0.74448870400619
H           -7.53597734798014        4.83636495037642       -0.88347862427280
H           -6.89812641170234        3.76290896333163        0.35485653540670
H           -6.79731649098537        2.71404273652635       -3.83390243296376
H           -7.50969582625891        4.23372309035543       -3.29288463949743
H           -5.76138449227435        4.00520943365824       -3.22537512385969
N           -6.70082040030641       -0.97124529074372        0.19985698872961
H           -5.64772668677384       -2.29606954399556        0.79704376846183
C           -7.82728582980632       -1.84734131219500        0.42542282176702
H           -8.48399525164283       -1.45960115227447        1.21668068684437
C           -8.65663379401152       -2.05397840030684       -0.84429148879624
C           -7.26872199378518       -3.19963523168303        0.89383400181327
H           -8.00724089025972       -2.35233990677779       -1.66471327138333
H           -9.38789449539385       -2.83742345865964       -0.66608618290215
H           -9.16814501205483       -1.13299374996041       -1.11168581433167
O           -5.94835962911681       -3.20879315755977        1.02905935892946
O           -7.96097239702201       -4.15457614222347        1.11457497452475
