42
 energy: -62.486133514339 gnorm: 0.000479325060 xtb: 6.7.1 (edcfbbe)
N           -2.25241774608396       -0.16568956877608       -1.78319415889611
H           -2.26043700797038        0.83470642121068       -1.95468868958144
H           -2.24692453770659       -0.63482463559662       -2.68195458211410
H           -1.38338505139519       -0.40952023126969       -0.06121879419276
C           -3.42362300053399       -0.56729897115357       -1.00239813056311
H           -4.36333954917707       -0.13892670945325       -1.37358855947568
C           -3.51965027742905       -2.09538003090040       -1.02251382631829
C           -3.15432316719308       -0.11189933151233        0.43705802884864
H           -2.57311057822511       -2.53202968672188       -0.70981186298431
H           -4.30019044204043       -2.44561215499049       -0.35425708160554
H           -3.75084169484451       -2.44083024541835       -2.02820494437617
O           -1.86782940019564       -0.22424901560616        0.77077617301481
N           -3.94688623691541        0.30672543466241        1.32540628114473
H           -5.37676661550484       -1.61581438444886        2.15276132594221
C           -5.36470022332197        0.55052120159506        1.17187812357578
H           -5.72355940437241        0.71381917473679        2.19946736641201
C           -5.63488013974161        1.82325356544378        0.35827214565527
C           -6.07133127961888       -0.67290160073320        0.63735319982562
H           -4.95806439420643        2.59650409804442        0.72717302748236
H           -5.38708303308112        1.63159871137736       -0.68606755821776
C           -7.08177823324146        2.32290801638488        0.44817549651787
O           -5.95439075594219       -1.78589201336843        1.39597574858898
H           -7.75170899586325        1.46891112997187        0.31091283342216
C           -7.37223185564408        2.96535689759978        1.80254127923872
C           -7.34355212879919        3.33199220189566       -0.66925809806692
H           -6.70829228104137        3.81053985381610        1.97089907563593
H           -8.39823036575653        3.32443723995437        1.83553887384142
H           -7.23855749276988        2.25706295863574        2.61590532092380
H           -7.19547925450402        2.87902137551817       -1.64701491210511
H           -8.36492652265268        3.70099568879362       -0.61657097770680
H           -6.66891550826678        4.18057971841906       -0.57740133950090
N           -6.67054654289667       -0.64521552797586       -0.46822661013470
H           -6.96650418334526        0.17505096930371       -2.09295847896082
C           -7.27778805483312       -1.81153279028419       -1.06370489338679
H           -6.77827460279442       -2.74644917208363       -0.78332529318850
C           -8.76174767361891       -1.90279068625752       -0.69090288852711
C           -7.18049219548903       -1.61372839390287       -2.58262242738622
H           -9.27203107089033       -0.97767976775940       -0.95220664429789
H           -9.22056080811556       -2.72763322462305       -1.22889236699081
H           -8.86160957581317       -2.07128868993612        0.37871601730079
O           -7.04280056072566       -0.33651937452321       -2.93054601509737
O           -7.23639153025173       -2.51091253688429       -3.37466028093337
