42
 energy: -62.486133515915 gnorm: 0.000479738577 xtb: 6.7.1 (edcfbbe)
N           -2.11953890134329       -0.25180559764970       -1.38490461483084
H           -2.14681786481251        0.75804418928589       -1.48409080411389
H           -1.94548102435098       -0.64909786813684       -2.30169984882465
H           -1.59547196661214       -0.74051625948176        0.51675104228708
C           -3.38509991231608       -0.75612885804701       -0.84462114435160
H           -4.27568175932843       -0.38936158927784       -1.36825178660836
C           -3.36474598511013       -2.28492010652663       -0.90868268833635
C           -3.41799678300197       -0.34356628288446        0.62680292141469
H           -2.44857657706681       -2.66927704464637       -0.46481254049198
H           -4.21593401386849       -2.68048911179089       -0.36620345497822
H           -3.41876219659718       -2.61556699355459       -1.94348223900305
O           -2.23852737982638       -0.55323915813814        1.22704039588858
N           -4.33191513064920        0.13591380017746        1.34681908975217
H           -8.02455760541560        0.61500281365129        1.27320478764713
C           -5.63796455710785        0.60492437079265        1.00335530284328
H           -6.07143191899706        0.89369569668579        1.97366147631651
C           -5.51603416118410        1.87467685718421        0.12050415800128
C           -6.60331706263783       -0.36588873632649        0.36250595816875
H           -4.71398320692117        2.47753282564326        0.55230649593256
H           -5.19833642392859        1.55924805857473       -0.87496452207542
C           -6.77247370413959        2.74317567643663       -0.01515354765873
O           -7.93488872218710       -0.11060255035422        0.64294448985050
H           -7.60681369153478        2.13148565851358       -0.37573946018535
C           -7.15961113517183        3.40451619134261        1.30713273817551
C           -6.51522298338969        3.82327273229719       -1.06655728035832
H           -6.35272189994718        4.04750658204871        1.65132528721269
H           -8.04999450125123        4.01521036258481        1.17449695141183
H           -7.36415100700157        2.67896388977250        2.09213928043254
H           -6.29603720400341        3.37545735742377       -2.03292257334977
H           -7.38936414453998        4.46034557291094       -1.17729743833846
H           -5.67180212987355        4.44493748428215       -0.77412946493681
N           -6.21724050039429       -1.31807107348172       -0.34778114030347
H           -8.59771875031082       -0.45043429091132       -1.02359815793714
C           -7.04376338605339       -2.28980175444697       -1.02199307233401
H           -6.34787549023215       -3.03916071206583       -1.41662117430596
C           -8.08109490857582       -2.99092198656995       -0.13724485228686
C           -7.73599840929078       -1.66021953025382       -2.24118792120095
H           -8.83793702720075       -2.30048493246690        0.22783043790657
H           -8.56737560489522       -3.77740110568751       -0.70920421921268
H           -7.57955500297326       -3.43595425078993        0.71934451763649
O           -8.56682269846160       -0.65212261309903       -1.97800566007969
O           -7.54720327088490       -2.04720264950379       -3.35884531243235
