42
 energy: -62.486133512775 gnorm: 0.000480106800 xtb: 6.7.1 (edcfbbe)
N           -2.01829642651103       -2.30755775479844       -1.15309914824389
H           -1.06963738039036       -2.66145746693051       -1.17657188147867
H           -2.32378420841949       -2.18611077440801       -2.11503511823424
H           -3.72567227380548       -2.65032632233957       -0.32752918725473
C           -2.08363200935520       -1.02844972893409       -0.44882733771933
H           -1.54710901958559       -1.15519687121840        0.50113017188291
C           -1.48878026827803        0.15399672367259       -1.20889005951677
C           -3.54794057761950       -0.78968198397105       -0.09984832994161
H           -1.99278072944276        0.27426428473928       -2.16537216594299
H           -1.63113407047705        1.06148377443412       -0.63252382937347
H           -0.42602254209534       -0.00215589610297       -1.38329866020074
O           -4.28970237312282       -1.90990023263890       -0.02454107058360
N           -3.94616369833874        0.38317965968128        0.10268613591092
H           -5.24340821971607       -0.74695434127373        2.32633812880921
C           -5.30403290831371        0.76213748639651        0.42794013919988
H           -5.22560288074565        1.37287422520037        1.33953766091021
C           -5.80739722311391        1.64478618815635       -0.72357343735708
C           -6.23459787133632       -0.39564627740147        0.71741897530854
H           -5.01431193805775        2.35748235428163       -0.95611278130774
H           -5.94787507755857        1.00106298464532       -1.59257806154387
C           -7.10749387803985        2.39789904313370       -0.42447641994168
O           -6.06056220675731       -1.03048436087548        1.89928593611448
H           -7.82242753450998        1.69631872420733        0.01474705574277
C           -6.87825478596350        3.54661180527486        0.55528918436223
C           -7.69594670848884        2.93650398508954       -1.72737404437619
H           -6.15924093484391        4.25445006037838        0.14806157162944
H           -7.81070057782192        4.07480375639387        0.74075228444016
H           -6.50278367546556        3.18621960406033        1.50969001988026
H           -7.92166364388922        2.12495666555611       -2.41471022581329
H           -8.61546205335826        3.48297823415078       -1.53172968608861
H           -6.99267362818041        3.61206029550553       -2.20986736600728
N           -7.14825489602507       -0.69778964779202       -0.09235790347238
H           -7.84132143866645       -0.57140513656803       -1.73480168918188
C           -8.04437381076775       -1.80641365473694        0.13550451376109
H           -7.51018177725726       -2.68846509546708        0.50997484676012
C           -9.16021478438290       -1.44515615803720        1.12202230330121
C           -8.68479212827710       -2.14492885362526       -1.21902401754561
H           -9.67884905949422       -0.54900599794439        0.78619422219383
H           -9.86961146882835       -2.26608609354408        1.17665911815968
H           -8.73884141472866       -1.26409065218575        2.10760459719595
O           -8.43852594548343       -1.23684138019731       -2.15615127318920
O           -9.35613320518565       -3.12199092048692       -1.40360811250459
