42
 energy: -62.486133523205 gnorm: 0.000478678545 xtb: 6.7.1 (edcfbbe)
N           -1.40724077580940       -0.36656261450359        0.85095183907461
H           -0.56018321137188       -0.88924787234745        0.66059343557330
H           -1.61867959846579       -0.48252448928073        1.83860782615489
H           -2.21124378319085        1.37211598718814        0.44385838487240
C           -2.52175576556212       -0.87842596419355        0.05047727576505
H           -2.17405611489834       -0.91480481573991       -0.99128810720272
C           -3.03047848865225       -2.25694157733271        0.46002869569425
C           -3.61875387002005        0.17142096659092        0.10533924335381
H           -3.41781340898786       -2.23082938660558        1.47514409271442
H           -3.83411876252152       -2.55982042424764       -0.20104322208342
H           -2.22601196022816       -2.98761628972545        0.40435950440726
O           -3.16952126948284        1.43609169250793        0.26224774855921
N           -4.82221423582426       -0.17100838177996        0.01581563543379
H           -8.19987359233892        1.65088895533387        0.12982717051737
C           -5.89483567504476        0.79598079475878        0.00246159014597
H           -5.81095666085673        1.48745146221357        0.85423479386097
C           -5.81652361916335        1.59360637496964       -1.32254085541572
C           -7.18342114649433        0.01335262041358        0.12303387614348
H           -4.79601298985883        1.97586250491177       -1.38723362700731
H           -5.95453781168608        0.87775463498633       -2.13664640171445
C           -6.76848502937734        2.77893937381946       -1.52687288218336
O           -8.35137338806698        0.69859314796484        0.15317604953405
H           -7.80069251723994        2.42264928719483       -1.62288645894634
C           -6.67575969565767        3.79932227978648       -0.39216270716975
C           -6.41169256371652        3.45982907617478       -2.84984491832480
H           -5.64596837895081        4.13018666796828       -0.27508455208234
H           -7.29072771367322        4.66814292815194       -0.61763053972078
H           -7.00855580438057        3.39613085999781        0.56323035375899
H           -6.46553573319156        2.75126674305992       -3.67291627367775
H           -7.10036024703260        4.27617943627199       -3.05539597037472
H           -5.40259691647841        3.86382699695299       -2.80925226081482
N           -7.12265907804210       -1.22791448324655        0.29497404640215
H           -6.07640989797286       -2.60328732962240        0.64257262328088
C           -8.26700907930634       -2.08000358207105        0.48057459412645
H           -8.94943360541930       -1.68798673290713        1.24656745790683
C           -9.05350691528723       -2.29334912595965       -0.81652918967847
C           -7.71416115858583       -3.43612771958878        0.95804853040560
H           -8.38124109443081       -2.62429486541003       -1.60546961653309
H           -9.81294305738117       -3.05287323217990       -0.65345414753293
H           -9.52870031811080       -1.36412449653385       -1.12054129600162
O           -6.39090511220324       -3.49608701722457        0.94475906503859
O           -8.41924126446441       -4.34778809396851        1.29484404826454
