42
 energy: -62.486133026752 gnorm: 0.000642287125 xtb: 6.7.1 (edcfbbe)
N           -1.32867661911624       -1.31852344758334        0.55760950150632
H           -0.81430853107650       -0.49023355075232        0.83962846268575
H           -0.65511714882028       -2.01962961614562        0.27206438159390
H           -2.91758974802208       -1.25294606789916        1.63343880451920
C           -2.24715725913092       -1.00691605820536       -0.53787205972179
H           -1.83382786095874       -0.32071545163581       -1.28844248057696
C           -2.68958718720868       -2.29783963845446       -1.22860840580560
C           -3.47406198195304       -0.36116178019298        0.07579171682508
H           -3.10443936013294       -2.99081238234338       -0.49912512274798
H           -3.44748270912046       -2.06883694453180       -1.97181802884636
H           -1.84376474557944       -2.77323734971256       -1.72062964889522
O           -3.70165819047195       -0.72902173248334        1.36506468412579
N           -4.16835649496593        0.43011120948654       -0.60188874865017
H           -5.58485439185378       -0.47395798479468        1.82962453416093
C           -5.40767393159320        1.00994472391685       -0.11393223139893
H           -5.22158418940504        1.51570629932482        0.84668562901535
C           -5.88681442938406        2.01427805641844       -1.16163632407570
C           -6.42205027336053       -0.08842859571964        0.12343257997139
H           -5.07297262682036        2.71913123876104       -1.33963183084152
H           -6.06315766690418        1.45486315781101       -2.07898110938592
C           -7.15945544818120        2.77562446654443       -0.78104200566843
O           -6.43017429115265       -0.64098965059490        1.38405492894892
H           -7.95126673153996        2.04780804733337       -0.57958983442941
C           -6.96182535144105        3.64700129271775        0.45818119266813
C           -7.59494317363118        3.64272639702908       -1.96066003396609
H           -6.11432769124352        4.31625129122008        0.32181027350959
H           -7.84890000187494        4.25054709441730        0.63599189117693
H           -6.78924165025119        3.04454473157400        1.34669161860055
H           -7.76104486614060        3.02895926825685       -2.84187671607199
H           -8.51915897583371        4.16661462734049       -1.72896501912734
H           -6.82973095343186        4.38091888155743       -2.19241522609785
N           -7.16808492070717       -0.44793690413962       -0.81399130915400
H           -8.22487221104120       -0.78826845190946        1.51713348713973
C           -8.14001440823470       -1.50915963288692       -0.79163666021429
H           -8.47191196109300       -1.61848394000744       -1.83074993983088
C           -7.59853806768777       -2.85720008878439       -0.29408891720577
C           -9.38955111876300       -1.15187918646502        0.02908118642354
H           -7.31230886749728       -2.80943297395876        0.75438281416772
H           -8.36195956083883       -3.62127265100878       -0.41727646110901
H           -6.72466109341854       -3.13149181120642       -0.88149549923709
O           -9.17388703167661       -0.78698768800461        1.29162427803242
O          -10.49519754228782       -1.22169303413537       -0.42700320664406
