42
 energy: -62.486133534254 gnorm: 0.000477299097 xtb: 6.7.1 (edcfbbe)
N           -0.78556841242433       -0.68204811093918        0.08128817749480
H            0.10264505231733       -0.68976980416493       -0.40478685428187
H           -0.86331662449375       -1.56101026845973        0.58602512857077
H           -1.81749419143245        0.49030715788097        1.19823589915851
C           -1.89734063408994       -0.54858694775432       -0.86047281504394
H           -1.62746384658594        0.23724191203039       -1.57715926464564
C           -2.24931516676352       -1.82374594190181       -1.62264923552563
C           -3.09276868125241       -0.02316603869243       -0.07897588314000
H           -2.47377404456566       -2.62920169089100       -0.92558332409307
H           -3.12842366490512       -1.64420831355877       -2.23208537274341
H           -1.42158846835776       -2.12852565543791       -2.25955585891688
O           -2.78688417154507        0.57240982331572        1.09168099160218
N           -4.24967137001656       -0.15599247741145       -0.55048879977455
H           -5.26647331905664       -1.59033560745897        1.44215667981825
C           -5.40891129281122        0.39750039115436        0.12222785151477
H           -5.17127168992546        0.70705018459167        1.15288196727679
C           -5.90634220769385        1.60150801114632       -0.68421644665591
C           -6.41921257381705       -0.72566366387687        0.17781365317732
H           -5.07079829674466        2.29534522965435       -0.79975450108322
H           -6.18024769465976        1.23751946302294       -1.67432507503995
C           -7.09151998764303        2.33374533068302       -0.04595917136568
O           -6.12965573892163       -1.73220805685196        1.03411006039639
H           -7.82483679731250        1.59028699598919        0.27912309737746
C           -6.65346239287287        3.15606542199323        1.16446900556484
C           -7.74992381361387        3.24367383389313       -1.08142060920788
H           -5.93049723023172        3.91293285422325        0.86665578994471
H           -7.50943829244226        3.65786250981555        1.60983420395516
H           -6.19796442599231        2.52910079814054        1.92677793151000
H           -8.12293709867534        2.66587226046274       -1.92335629449359
H           -8.58555397585723        3.78041008517331       -0.63855177105344
H           -7.03394477659725        3.97335792802846       -1.45392790616678
N           -7.43226345591408       -0.72503215720308       -0.56432862654562
H           -8.31445820088608       -0.02328650549603       -1.96651203295979
C           -8.39717452020203       -1.79879993678193       -0.56875793197132
H           -7.91339139879146       -2.78313473412897       -0.59611868627459
C           -9.32363797785965       -1.73642088043552        0.65077613577745
C           -9.25193599585868       -1.62654704192447       -1.83500889507059
H           -9.78652724428764       -0.75354123219504        0.71612076979050
H          -10.10089211591496       -2.48839125887767        0.54911499758504
H           -8.75544349973836       -1.92299929630590        1.55853162133158
O           -9.03494028657162       -0.47896397981803       -2.46467762313131
O          -10.05157073582613       -2.44263641618268       -2.20021591508765
