42
 energy: -62.486133505139 gnorm: 0.000481006159 xtb: 6.7.1 (edcfbbe)
N           -2.63369731767364       -1.94445832550418        1.58674053432563
H           -1.70171186732577       -2.31530867115161        1.72286382987718
H           -3.27118113419102       -2.73290930344002        1.51143579880327
H           -3.92417239476151       -0.75424231371539        2.31018703905039
C           -2.70620846613236       -1.12486752058536        0.38016641334033
H           -1.84831228407571       -0.44116345299682        0.39287205537949
C           -2.70201484154456       -1.91409238991117       -0.92860189568311
C           -3.96165471168590       -0.27338134681330        0.49532426510473
H           -3.53349664773042       -2.61620704649585       -0.94251712160077
H           -2.81621548257876       -1.22897332242272       -1.76167633930534
H           -1.77114273442975       -2.46678716032723       -1.03854258858456
O           -4.48118967279259       -0.19256117496708        1.73040584443075
N           -4.42398602016138        0.30771937487869       -0.52159400356877
H           -6.82823200051456        0.41037866587819       -2.45355180211740
C           -5.65516302058596        1.07539750803369       -0.40610184355184
H           -5.75393079172146        1.49170924978682        0.60328940680445
C           -5.63729594279989        2.19354783239895       -1.44852189039201
C           -6.76038179268811        0.04794741979332       -0.57815892445287
H           -4.78269200572935        2.83394946694049       -1.22094146084435
H           -5.43912304917458        1.76445763143563       -2.43622806325307
C           -6.91182315320021        3.04769087179285       -1.48127956902788
O           -7.26963572020089       -0.15576599582016       -1.80719505201101
H           -7.78755678886657        2.39642045211517       -1.58342675285095
C           -7.07221098940214        3.85666720112117       -0.19596413640534
C           -6.86655771733392        3.98679047388011       -2.68631202261657
H           -6.19957017881819        4.48519832833775       -0.03159046193459
H           -7.94808866284641        4.49783558389919       -0.26375703274879
H           -7.19787756186160        3.20487180142190        0.66436121599195
H           -6.79032970902593        3.42816610445799       -3.61710841237348
H           -7.76669596247595        4.59521988189740       -2.72815097340355
H           -6.00784614563651        4.65076326029235       -2.61460473043345
N           -7.06955599262850       -0.61873783938150        0.44220938942838
H           -6.38752382390288       -1.11392096839897        2.05412691257526
C           -7.96757920726692       -1.74267902244052        0.49562087116825
H           -8.99895199929708       -1.37621568232514        0.58698355077653
C           -7.89170978573896       -2.73362977539064       -0.66883095213125
C           -7.64179223917742       -2.49055001659794        1.80600441202548
H           -6.85370447304880       -3.00037479035638       -0.86040927223066
H           -8.44244452751956       -3.63014580318997       -0.39624680681007
H           -8.31599254768995       -2.30654624916315       -1.57226540107638
O           -6.68883004840910       -1.92778591502220        2.53313281648019
O           -8.19811183248341       -3.50545283315950        2.12678830104419
