42
 energy: -62.486133506622 gnorm: 0.000481203465 xtb: 6.7.1 (edcfbbe)
N           -1.60253064595088       -1.03137317540926       -0.22164233822514
H           -0.98105893033036       -1.83016191095063       -0.17940589499079
H           -1.23289482362815       -0.32496967729998        0.40903712235064
H           -2.53261282869861        0.02674305328682       -1.54153812725964
C           -2.95529091277986       -1.40337662967576        0.19601598387714
H           -3.22719567261287       -2.30805820622065       -0.36366781290644
C           -3.11428412253927       -1.67189046974120        1.68912444368362
C           -3.89339435498758       -0.30326459702311       -0.28971659974237
H           -2.84189434210691       -0.78705028743472        2.26034670632283
H           -4.14887785829404       -1.91365990921635        1.90511572407608
H           -2.47932631749169       -2.50143316540662        1.99366995541001
O           -3.43973530548309        0.35507233454251       -1.37778537741070
N           -4.97791776172221       -0.13431421409487        0.31208415726311
H           -7.75745862935459        1.24174673198119       -1.75435798267901
C           -6.03126859542869        0.79327171740580       -0.01592327471798
H           -6.32969412935836        1.21359374912737        0.95686497992113
C           -5.70794612133854        1.95361903029147       -0.97071599666039
C           -7.20078019864339       -0.07431094520593       -0.46792450966972
H           -4.67824040146008        2.26109678278107       -0.78762182714096
H           -5.74175857786976        1.60286571434579       -2.00649136543312
C           -6.61666886839597        3.17994238984899       -0.76792805528174
O           -8.03440056951673        0.37665358583031       -1.42614330439557
H           -7.63724022534586        2.86055366562481       -0.52007816699923
C           -6.11046957340189        4.03194221363950        0.39502508072991
C           -6.66682336486124        4.01875053482673       -2.04470610454074
H           -5.12767435071667        4.43812953472282        0.16527051770930
H           -6.78844076378772        4.86134201104526        0.58321339069636
H           -6.03334441433686        3.44215360643091        1.30547318451335
H           -7.08181998722194        3.45303036852842       -2.87750600900987
H           -7.28314575410475        4.90238041858125       -1.89589756291691
H           -5.66555291876663        4.34275849990007       -2.31983888850935
N           -7.33362194029300       -1.19336504561906        0.08696328857631
H           -6.71631034195483       -2.30535229574323        1.30775360814243
C           -8.36834027667933       -2.14672973304689       -0.21975226360320
H           -9.36782509098373       -1.70444031380631       -0.11978786019250
C           -8.23153676541408       -2.74685191309173       -1.62294137230569
C           -8.22420762510350       -3.27900887265837        0.81528598921674
H           -7.22510076122049       -3.13766129638341       -1.75981216874641
H           -8.94632147215788       -3.55719696054994       -1.73500192342480
H           -8.42324901077898       -1.98707279384859       -2.37597037983783
O           -7.15028899416292       -3.15462386025435        1.58172948571836
O           -8.99964770713590       -4.19150565822755        0.89811706824920
