42
 energy: -62.486133501062 gnorm: 0.000481589530 xtb: 6.7.1 (edcfbbe)
N           -1.46868497854871       -0.88653358458635       -1.67818622371095
H           -0.85113310029995       -1.64491170286444       -1.94079930229029
H           -0.89560069911371       -0.14760133879828       -1.27978202872880
H           -2.90837894309450        0.15335867526099       -2.38703175653379
C           -2.45700800444636       -1.33150185244379       -0.69716983769204
H           -2.87267623394687       -2.27996016516015       -1.06041896681065
C           -1.90399344884062       -1.53111691051452        0.71200088861385
C           -3.60771817826538       -0.32530086169496       -0.71625287421509
H           -1.46695709873565       -0.60365012829675        1.07687683768613
H           -2.71156409035388       -1.81397994428242        1.37785820145932
H           -1.14167493143983       -2.30795295088374        0.71639449029181
O           -3.67340964472263        0.41074460911347       -1.83251103354775
N           -4.38015467154517       -0.29886335438502        0.27384725173676
H           -6.87234122574169       -0.51810471394265        2.19093855104273
C           -5.55358095785851        0.53113837399702        0.42643872464434
H           -5.52047080971306        0.86677835241996        1.47445249361365
C           -5.71025770768496        1.74664189449279       -0.49398279071329
C           -6.73545216648468       -0.40237713677633        0.25454346223383
H           -4.79131885340216        2.33408002132330       -0.46645872256562
H           -5.85297485886904        1.37428617300765       -1.50707398050889
C           -6.90070290397074        2.63108073640820       -0.10378969540246
O           -7.35864122471431       -0.81978333084044        1.41404417587610
H           -7.76731210118676        1.98867517361796        0.09152190802977
C           -6.60918316592834        3.46073007288279        1.14575735516594
C           -7.25205917550132        3.55571034919646       -1.26721414006149
H           -5.76437013003791        4.12319623863791        0.96806722378401
H           -7.47254710017684        4.07007205594845        1.40350034761301
H           -6.37514959957079        2.83274927975778        2.00257190710893
H           -7.52803532905889        2.97442812056950       -2.14307497349089
H           -8.08868270125680        4.19935148840061       -1.00506880979371
H           -6.40066213606929        4.18316538793090       -1.52234693160592
N           -7.05585285757366       -0.77264003034789       -0.89449905212287
H           -9.05127349247676       -0.73308209551637        0.74436962281115
C           -8.10455544052882       -1.68833354431848       -1.25899757749698
H           -7.96827187884579       -1.87173834173233       -2.33112430480646
C           -8.07207352224525       -3.02853408151709       -0.51147712770911
C           -9.49985230698474       -1.06597562754520       -1.09572200796454
H           -8.27650287608978       -2.90038425172520        0.54920160635265
H           -8.81639052557960       -3.69723455287127       -0.93673820703476
H           -7.08727407291968       -3.47719417534489       -0.62139103066395
O           -9.79045652670791       -0.60529377340525        0.12108191537439
O          -10.29099160165566       -1.01616431424116       -1.99342041330111
