42
 energy: -62.486133501234 gnorm: 0.000480615419 xtb: 6.7.1 (edcfbbe)
N           -1.41128801697445       -1.50025704245920        0.60575916834122
H           -0.92044264683917       -0.75932947397069        1.09576031820608
H           -0.71883954351172       -2.15079842409673        0.25355261942160
H           -3.10388095358967       -1.60046594445403        1.51304820224321
C           -2.21158480442889       -0.95340097270716       -0.48994643167735
H           -1.71917726446042       -0.14311042479124       -1.04346367614641
C           -2.58914702914777       -2.06926957631876       -1.46523858720333
C           -3.49347896548954       -0.41046770082902        0.11366518753738
H           -3.07377527731872       -2.88477841910448       -0.93189593385171
H           -3.27317687698984       -1.67934700991557       -2.21290192944658
H           -1.70176119977791       -2.45479740562768       -1.96263732363752
O           -3.84409146126250       -1.00020187410274        1.28403818095187
N           -4.11510973503568        0.50117857645231       -0.47766129743851
H           -5.68409085268284       -0.40620674347927        1.95453029048092
C           -5.39881434387741        1.02301490729823       -0.04751040401662
H           -5.25699867507534        1.55752787114671        0.90469862030296
C           -5.87364776596711        1.99574345049639       -1.12895378858596
C           -6.40606976765271       -0.08396689275594        0.18476146202379
H           -5.06460686862064        2.70480041827322       -1.30970678095575
H           -6.02771960779278        1.41175364358720       -2.03507100863039
C           -7.16242172573472        2.74966689908874       -0.79022810709939
O           -6.51076540887870       -0.55737666219725        1.47382910083470
H           -7.94867816605848        2.01791689802570       -0.57989866470057
C           -6.99714136044648        3.66017904798773        0.42526378757070
C           -7.59025280476258        3.57615721070751       -2.00150403090664
H           -6.16472238784950        4.34539511031770        0.27670240996546
H           -7.90019317760402        4.24663667931504        0.57793286400090
H           -6.81834963578178        3.08824821154764        1.33251414321118
H           -7.73735320064420        2.93469317464242       -2.86627235727276
H           -8.52310515665178        4.09663175968068       -1.79856848480630
H           -6.82942823672852        4.31530256859231       -2.24440620657587
N           -7.09385371918328       -0.49306954739312       -0.77690881403542
H           -8.31476733355445       -0.66724524560247        1.48073795170766
C           -8.07024569902377       -1.54968699238834       -0.75743862087656
H           -8.32493799744414       -1.72708291791962       -1.80888092838388
C           -7.58230639570382       -2.86416713663620       -0.13133822176480
C           -9.37324473997431       -1.13176067689343       -0.05736338136055
H           -7.39032797105397       -2.75256430285810        0.93355850490076
H           -8.33625976613468       -3.63396732906503       -0.27559715392776
H           -6.66122494051851       -3.17455954492907       -0.62019836312813
O           -9.24489585574687       -0.67547386032843        1.18708202066514
O          -10.44401392890630       -1.23352016757568       -0.58490917135554
