42
 energy: -62.486133509082 gnorm: 0.000480208877 xtb: 6.7.1 (edcfbbe)
N           -2.11698917438623       -0.60657708412521       -2.19007417847304
H           -2.12849886901757        0.37015389343093       -1.91701542001763
H           -2.91987471280755       -0.74864361485411       -2.79236762297677
H           -3.09382499477390       -2.74804301325355        0.84948604111206
C           -2.22528412551019       -1.43292255965043       -1.00924647110535
H           -2.25268684199672       -2.48187713249133       -1.33981696622377
C           -0.98963304890751       -1.21214462911071       -0.12825509144751
C           -3.47845749386889       -1.16028645893398       -0.19692039776642
H           -0.97868694557491       -0.18820882598401        0.23745511309074
H           -0.97027452445672       -1.88932450183219        0.72321567540251
H           -0.09892542573612       -1.37550518736965       -0.72704285512593
O           -3.76444318509666       -2.05606597661665        0.80650763400909
N           -4.15454496759126       -0.13762706888755       -0.44331201200968
H           -5.66945372696160       -2.04846221108700        1.04356848927439
C           -5.36668853945364        0.24578107654150        0.25274194525580
H           -5.20294988675463        0.19356337099734        1.34150728442842
C           -5.68729437554396        1.68058402832573       -0.17090397534309
C           -6.48269943230286       -0.72317916994895       -0.08388281812478
H           -4.79416752004676        2.28383603355028        0.00152412680802
H           -5.87633416127757        1.66608453444190       -1.24387900468244
C           -6.87883209959904        2.30652770300715        0.56043833615501
O           -6.49589555068562       -1.90788502906774        0.55521261505653
H           -7.70272315825394        1.58680326711174        0.56387693700919
C           -6.52829696003375        2.65807146217203        2.00507554953298
C           -7.33548495034616        3.55991664877520       -0.18370438265649
H           -5.70150085813471        3.36507526430163        2.03347324140258
H           -7.38302869572302        3.11290458905023        2.50042313612711
H           -6.24525649349175        1.77449237383906        2.57199989892640
H           -7.64786014894556        3.31562247266289       -1.19591926808042
H           -8.17443412902260        4.02316528319020        0.33010723006942
H           -6.52556175615853        4.28422101122043       -0.23825423594715
N           -7.33936187626460       -0.40311625526848       -0.94914808812917
H           -7.90300435365025        0.71524821936168       -2.25029372301790
C           -8.41842984567547       -1.28268170598093       -1.33004285199378
H           -8.07520557172120       -2.31354333958983       -1.48400458777494
C           -9.53937979243115       -1.28609759984483       -0.28398245017209
C           -8.99460698986985       -0.73997666712228       -2.64701284994399
H           -9.87384082827087       -0.26789099046839       -0.09409208404071
H          -10.37567231563383       -1.87081890695889       -0.65623254723767
H           -9.17806712977334       -1.72107114265056        0.64452727861010
O           -8.55931330258085        0.47740293663939       -2.94766468683157
O           -9.77872249395847       -1.34953104363958       -3.31913692273169
