42
 energy: -62.486133519853 gnorm: 0.000478321002 xtb: 6.7.1 (edcfbbe)
N           -1.06847851336431       -1.22308123565450       -0.69679721478287
H           -0.77151140753408       -1.95298038758693       -1.33325189241678
H           -0.70960616337970       -1.45687545502933        0.22522491460351
H           -1.03020043695389        0.59349218741576       -0.37206467524920
C           -2.52745549837853       -1.11644551234962       -0.64860060557510
H           -2.89078182494047       -1.25457776165334       -1.67454958529033
C           -3.16468114945278       -2.15671016871259        0.27687291843026
C           -2.87877055969010        0.32291647544479       -0.16477431138115
H           -2.80423537020651       -2.01335502820810        1.29484022481904
H           -4.24619133512136       -2.07197189595013        0.28841650950532
H           -2.90345373669488       -3.16217598469914       -0.05059109338268
O           -1.80236578919496        1.11938492079305       -0.07242995544835
N           -3.95641151357933        0.75036282234932        0.28654753705218
H           -4.75057452177832       -0.50942318877545       -1.68954093857195
C           -5.35811563897634        0.83130077031769        0.21140195846205
H           -5.70978698314599        0.96871090023021        1.23869300653392
C           -5.70424895390380        2.10509189145529       -0.60148211062264
C           -6.12470396319466       -0.33455003382282       -0.38519379706214
H           -5.06467371068179        2.90103555769862       -0.21812670026640
H           -5.42614944323780        1.93353417438434       -1.64550884511529
C           -7.16949635003270        2.54398007675374       -0.53605239192866
O           -5.57106440481050       -0.95872076431429       -1.45056889727520
H           -7.80519280453851        1.71267215498805       -0.85627114938399
C           -7.57841399865913        2.95390024727561        0.87590070956289
C           -7.38451839522518        3.71155331163260       -1.49860041475464
H           -6.93981159175501        3.75742113909622        1.23632745466783
H           -8.60737366609373        3.30437406223791        0.87788150515463
H           -7.50818485184859        2.11831156629106        1.56666437306239
H           -7.13336089187661        3.42683983728683       -2.51790610947480
H           -8.42416463766064        4.02844031116100       -1.48030153479119
H           -6.76202935390029        4.55721930329100       -1.21450259519994
N           -7.30412518811230       -0.55403849065554       -0.00156464437576
H           -8.81332774489005        0.05194136993553        0.84341074860867
C           -8.13686427810574       -1.55269746496204       -0.63217645395710
H           -8.03751005946663       -1.53439658454156       -1.72591330156097
C           -7.80642508063212       -2.96289563835685       -0.13233091690162
C           -9.59446347071201       -1.23181378623970       -0.26836709303122
H           -7.83241331532008       -2.98621379700952        0.95535935586841
H           -8.54132443844572       -3.66161730097417       -0.52181993492270
H           -6.81547770721002       -3.25530625078631       -0.47116325455411
O           -9.72132640536184       -0.26312054959660        0.63038041958340
O          -10.52687567603282       -1.81502813025645       -0.74653165718854
