42
 energy: -62.486133522485 gnorm: 0.000478688371 xtb: 6.7.1 (edcfbbe)
N           -1.79228167738273       -2.20109600595236        0.05639526047465
H           -1.46613658727833       -2.06717453400518        1.00809916837836
H           -1.02550632633224       -2.58099125949987       -0.48600495200199
H           -3.67975971347118       -2.52017682530335        0.29117210669129
C           -2.25354003209963       -0.93669296432420       -0.51593330842280
H           -1.61891339547473       -0.07607406896076       -0.26409012228208
C           -2.34832484176442       -1.06126100499572       -2.03700735179447
C           -3.65639274501366       -0.67384365524625        0.01363478507629
H           -2.99171960525660       -1.89704126194449       -2.30322820059731
H           -2.76953790674855       -0.14889393142708       -2.44779083649267
H           -1.36224799653560       -1.22333944838642       -2.46801173231283
O           -4.31071571858826       -1.77900768757814        0.40598700018271
N           -4.05173963324548        0.51573626507322        0.05768611751223
H           -6.86460258601548        0.48369306648660        2.25496012523746
C           -5.38168721326868        0.97153488332420        0.36612377981477
H           -5.31146064526290        1.48792131412015        1.33548758320432
C           -5.75516902958138        1.99431086001459       -0.72428672344796
C           -6.46259564333261       -0.08254875048584        0.42989689354547
H           -4.93115738464882        2.70327414644886       -0.81098695547033
H           -5.82894861018006        1.43687425387400       -1.65859009757683
C           -7.06866662501718        2.74067829556160       -0.47067632183214
O           -7.21306562115925       -0.12546546847972        1.59340897056581
H           -7.85230037624425        2.01285305973998       -0.23154561787731
C           -6.94606403298687        3.73493383597398        0.68278104347398
C           -7.48536820252947        3.47583499803307       -1.74307338263282
H           -6.17320213130880        4.46897677864288        0.46488928451763
H           -7.88707958694897        4.26085066442426        0.82743383464156
H           -6.69218191704270        3.24171248021299        1.61849050173870
H           -7.63439365378551        2.77183301700085       -2.55764788519020
H           -8.41545223351725        4.01624603326800       -1.58399318376751
H           -6.71804006570912        4.18865777890437       -2.03739668911842
N           -6.63902592517229       -0.83365812919133       -0.55253676088766
H           -8.81092975147348       -0.41270881907553        0.77674135882396
C           -7.59923524534554       -1.89815033017832       -0.67655689565995
H           -7.32771538474082       -2.42565027552994       -1.59835938045329
C           -7.59974993065246       -2.89384619905583        0.49119846428284
C           -9.02438278961204       -1.36456136077100       -0.87820224166638
H           -7.98118667789035       -2.44129491031257        1.40394975480007
H           -8.21772298732077       -3.75131396366680        0.23680160798350
H           -6.57989404543319       -3.22469365789793        0.67184374930243
O           -9.47585886054098       -0.54848734261465        0.07548773661014
O           -9.70223791749169       -1.66997580618867       -1.81761565138131
