42
 energy: -62.486133515548 gnorm: 0.000479622147 xtb: 6.7.1 (edcfbbe)
N           -2.70043255042874       -1.84497750916272        1.15216776674005
H           -2.00504301898806       -2.34210100825448        0.60791918629372
H           -3.38721360775161       -2.52460765420967        1.47079091781577
H           -2.71435238028920       -0.56600508075328        2.46325967680911
C           -3.35500102352895       -0.81005476531389        0.34960152506499
H           -2.55005427587647       -0.17787190640773       -0.06214839974562
C           -4.13866061004439       -1.38621175924876       -0.82536029646666
C           -4.04002238301581        0.16097910024584        1.35229662655917
H           -4.82165614585286       -2.15828905221993       -0.48639571775836
H           -4.70382302732706       -0.62266050939984       -1.34776939581177
H           -3.43948319731581       -1.83688238347546       -1.53099829967864
O           -3.35876691663768        0.17672503244747        2.50507547930299
N           -4.89254529858341        1.07330896092040        1.22619690454958
H           -8.11982261643782        1.24010167821851       -0.81774568731832
C           -6.03180838924657        1.32035502547476        0.40937813490473
H           -6.65633656556402        1.99734414950429        1.01382645612620
C           -5.59415330245236        2.08494691524433       -0.87077264274564
C           -6.89332309532572        0.10561853677670        0.13339475416307
H           -4.75252301310410        2.70597257489004       -0.55453746835484
H           -5.20943272506844        1.36868285425158       -1.60043231743746
C           -6.60872989393074        3.00119033568305       -1.57271596791537
O           -8.02924366176334        0.31212254059742       -0.56818476861719
H           -7.37836093329439        2.40313555493247       -2.07854220547184
C           -7.28106125550156        3.98233190014211       -0.61327144247126
C           -5.87195583063496        3.77994368191802       -2.66508699589244
H           -6.52835340460394        4.51958777375365       -0.04141007314836
H           -7.86636366386309        4.70762845125084       -1.17414908929176
H           -7.95153614103581        3.48684178763906        0.08615900601447
H           -5.37815491021020        3.10161227734613       -3.35724455081712
H           -6.56854264599379        4.39578729264725       -3.22922691146778
H           -5.11914117395372        4.42900065179894       -2.22397071955642
N           -6.60863987255699       -0.99656714008905        0.66626955522540
H           -5.60426846150490       -1.83013701297109        1.89041874720036
C           -7.41473283947763       -2.19126082532967        0.57895031538716
H           -8.34578931493482       -2.04356707150076        1.14560814817887
C           -7.77721076970206       -2.65493412843222       -0.83262830921310
C           -6.62253843100632       -3.28794946270662        1.31486943136244
H           -6.88886793348111       -2.69556351067694       -1.45946732854070
H           -8.20567221738555       -3.65152761446269       -0.76879407674044
H           -8.49583816106674       -1.97765341891670       -1.28415783256590
O           -5.60616174419664       -2.81049790959455        2.03034113151479
O           -6.88628734960041       -4.45550079613033        1.24964813903748
