42
 energy: -62.486143125599 gnorm: 0.000732948236 xtb: 6.7.1 (edcfbbe)
N           -1.98352824183996       -0.15843022274723       -1.31649144980007
H           -2.10996447506189        0.82360193642850       -1.53958755799691
H           -1.81830515472958       -0.65590961678652       -2.18439466541347
H           -1.31016014891913       -0.23615796659561        0.61419760036481
C           -3.15986716673163       -0.69285088520074       -0.62916941282352
H           -4.10437778538501       -0.49301355925876       -1.15945612073932
C           -2.97271158160039       -2.20363520208619       -0.46920938370129
C           -3.16148024352261        0.01198779227922        0.73482757736294
H           -2.10175501216403       -2.41596353908303        0.14784690664269
H           -3.84700794899075       -2.66090399778373       -0.01652671033931
H           -2.82063878513514       -2.65761847538299       -1.44650846681383
O           -1.95171535387540        0.02481795270078        1.30224968832233
N           -4.08766697520866        0.63033535706707        1.32950643698706
H           -4.94642366739722       -1.46474274966489        1.75328325384782
C           -5.46356359307292        0.70040005018345        0.90365066810369
H           -6.02000925873268        0.95009537081014        1.81983460172735
C           -5.67149685938612        1.83924784520422       -0.11016630250922
C           -6.02841233763714       -0.61727289969108        0.42121509663006
H           -4.93767860992515        2.61738411135439        0.10922676614292
H           -5.47034399849967        1.45524461018745       -1.11185036403535
C           -7.07941658304001        2.44619388263717       -0.06704104605364
O           -5.60021235884220       -1.71675980522436        1.08411567663139
H           -7.80238700502200        1.63110496353255        0.02980928656153
C           -7.23481876759250        3.38786476280791        1.12487698872918
C           -7.36068486941687        3.20163300220075       -1.36478684997598
H           -6.55754500480789        4.23387410671095        1.02860872114615
H           -8.25228476254964        3.76791400184569        1.17595890230038
H           -7.01483946689128        2.88158646854144        2.06121081460228
H           -7.30344814509625        2.53931018534193       -2.22549558918665
H           -8.35517882341158        3.64004343220962       -1.33967365080210
H           -6.63791138014051        4.00397865106205       -1.49846675264416
N           -6.95236958768892       -0.64121239653404       -0.43187242503622
H           -7.73424978465628        0.15305901475045       -1.89754443215407
C           -7.57410900607915       -1.86841447350005       -0.87067225052632
H           -6.88927111612172       -2.72474437079463       -0.84280446481666
C           -8.80764103482709       -2.18518387977584       -0.01789868595286
C           -8.04080000884024       -1.64283526690910       -2.31661240634872
H           -9.48641537492149       -1.33467807095770       -0.01421533749480
H           -9.31980363745456       -3.04895345747355       -0.43219470646811
H           -8.50453357263732       -2.40055396429345        1.00387951422226
O           -8.07581342208664       -0.36088130678771       -2.66498626927475
O           -8.35490035212254       -2.53602123759194       -3.05151558639469
