42
 energy: -62.486133519109 gnorm: 0.000479009549 xtb: 6.7.1 (edcfbbe)
N           -0.98055802298851       -0.91136946627187        0.70900855391373
H           -0.00169183706586       -0.96844089063192        0.45688849060022
H           -1.25316652905658       -1.81493605211019        1.08604867217528
H           -2.17549348380482        0.25504205927673        1.66737464747215
C           -1.80693782370233       -0.58389415576171       -0.45091089653772
H           -1.31989695298069        0.24850202434183       -0.97513724611763
C           -2.01956422868365       -1.73637960054656       -1.43171206087569
C           -3.12793399357887       -0.04553321012421        0.08249300425133
H           -2.49793861544910       -2.57639773845349       -0.93057663563339
H           -2.65374457267523       -1.40768164633085       -2.24849171113789
H           -1.06539182675038       -2.06818034948967       -1.83608043667156
O           -3.07748301138869        0.43478628395792        1.33193543767781
N           -4.14454029601801       -0.03971766791557       -0.66169125562114
H           -4.98411889693645       -1.66879383813761       -1.03586293547461
C           -5.42412843266229        0.45459386717092       -0.18959819451577
H           -5.39313602329851        0.72204912757348        0.87403191485529
C           -5.73886066874607        1.70623537000915       -1.03004668453546
C           -6.42618555492462       -0.67136460846717       -0.37124848682043
H           -4.93778245949273        2.42276528559697       -0.82942458184223
H           -5.66932501228627        1.42042574796719       -2.08198828766521
C           -7.08733467959157        2.38468363076163       -0.78239441499753
O           -5.91861274819103       -1.83850928345371       -0.80171617120600
H           -7.87875322416729        1.70900113090469       -1.11335396662571
C           -7.30064941769795        2.71598238839287        0.69185858322870
C           -7.16654766362351        3.65891219480460       -1.62260501999104
H           -6.49428889102370        3.34756567752737        1.05983323980457
H           -8.23939511544139        3.24869154212877        0.82305388676747
H           -7.33489632886221        1.81071139208501        1.29154054553715
H           -7.01170140710506        3.43748862788120       -2.67596979869148
H           -8.14350022379984        4.12225820180552       -1.51093133689748
H           -6.40944520841160        4.37397288187875       -1.30663332356387
N           -7.65767038411570       -0.47262170866983       -0.18680163363547
H           -9.09962913591075        0.60367304377897        0.24959168251906
C           -8.62213753306657       -1.53203211533534       -0.38972267290093
H           -8.46013513814130       -2.04836828358301       -1.34445122624692
C           -8.58793386483233       -2.56775572331131        0.74085419636116
C          -10.01600159306245       -0.89134498093041       -0.39754014369562
H           -8.71238974916470       -2.07310252152084        1.70242797794141
H           -9.39613570777764       -3.27991066809254        0.59962347716776
H           -7.63672656868690       -3.09360373958695        0.73183995287732
O          -10.03287298391151        0.35414076131714        0.06256664214626
O          -11.00155545050641       -1.47356883352812       -0.75714675671349
