42
 energy: -62.486133511425 gnorm: 0.000480845511 xtb: 6.7.1 (edcfbbe)
N           -1.78319627126284       -1.94779956403231        1.01110098780810
H           -1.72463114048661       -1.58013946316004        1.95524367029374
H           -0.89329720421546       -2.37800530268942        0.78883350488251
H           -3.69477863881835       -2.33144881322858        0.88466749606425
C           -2.09651154639803       -0.88204496030187        0.06249000619104
H           -1.53986825975855        0.04986232532686        0.23304934475208
C           -1.83150119019736       -1.36900426276836       -1.36377273819442
C           -3.58021703023789       -0.58599196695212        0.19977994508087
H           -2.40919068425099       -2.26852162932246       -1.56781410865348
H           -2.10857793407149       -0.59461307150715       -2.07334392676221
H           -0.77599266275353       -1.59800429763645       -1.49399162844480
O           -4.31910206155030       -1.61809570690251        0.64201966953820
N           -4.00959080620677        0.55489227325168       -0.10934774271002
H           -5.15685170061061       -0.65903103647555       -1.88469677380783
C           -5.41720299787833        0.89428783742919       -0.07370999468711
H           -5.66629597429095        1.21196726550726        0.94391693720011
C           -5.63268923320542        2.06796943571169       -1.04474224188089
C           -6.33018560612235       -0.25251596991647       -0.43618746608911
H           -4.91154107091997        2.84263376339245       -0.78051888668024
H           -5.39235646447629        1.73016454568582       -2.05682167144411
C           -7.05065523189338        2.64748549622946       -1.03257732480996
O           -5.99818764432792       -0.97303222820255       -1.52759629471392
H           -7.76439989759118        1.83597481835806       -1.20972921750847
C           -7.38474336829948        3.30092325867974        0.30572086172566
C           -7.18937520359144        3.66984590078469       -2.15985119102765
H           -6.66358907166267        4.08245777296194        0.53609891680907
H           -8.37487690258308        3.74790810487961        0.26532124471435
H           -7.37965550794847        2.57220527789251        1.11123013456534
H           -6.98835281159219        3.21286712707026       -3.12628354825639
H           -8.19681548769631        4.07776544065295       -2.17927852392768
H           -6.48940130122639        4.49020169795727       -2.01522366784291
N           -7.39272841173585       -0.42827949170365        0.21559766539213
H           -8.69277871161258        0.25074153300525        1.28564679232781
C           -8.32721099941489       -1.47459133344724       -0.13480997073141
H           -8.43132000854332       -1.58883775790170       -1.22156622891256
C           -7.89841312444479       -2.81714212834935        0.46676761937264
C           -9.68937634434502       -1.08783430445868        0.45648262386770
H           -7.76754414149575       -2.71526136998089        1.54200704659789
H           -8.66263423654079       -3.56281676524160        0.26696642038910
H           -6.95545972355291       -3.13097459480392        0.02657002550180
O           -9.63122673630431       -0.05065848473737        1.28424232835280
O          -10.70386790546932       -1.67753519212663        0.20704515201996
