42
 energy: -62.486133506574 gnorm: 0.000480588358 xtb: 6.7.1 (edcfbbe)
N           -1.61625505028839       -1.76827410567306        0.43973652514311
H           -1.03619778840298       -1.12052930058971        0.96277219921805
H           -1.01227699316652       -2.48218247912429        0.04986681381900
H           -3.31972799463770       -1.69468650620108        1.36246633098347
C           -2.34383677633169       -1.07228966976316       -0.62227561252294
H           -1.75810018814195       -0.29074376500014       -1.12444927825614
C           -2.83587659717673       -2.07708281333485       -1.66442306577998
C           -3.56458164242562       -0.42989465203597        0.00538011152036
H           -3.40894639407148       -2.86466869552318       -1.18056628034435
H           -3.47649694561431       -1.56803257368362       -2.37732335489304
H           -1.99453772891336       -2.52345823856407       -2.19052108673212
O           -3.98052845250118       -1.00271955112218        1.15146445458285
N           -4.12434522104539        0.53747193031452       -0.56851159915748
H           -6.84838536937202        0.81691311900689        1.89148225470373
C           -5.34764368276648        1.08035724488050       -0.01987497360072
H           -5.12885985621984        1.55441344145473        0.94960343233961
C           -5.87372433828458        2.12077812776062       -1.02063931841927
C           -6.38433934122840       -0.00064419152863        0.18334810230606
H           -5.07026141500758        2.83441127183724       -1.20740707655542
H           -6.06701074649790        1.58324641469968       -1.94937771904271
C           -7.13948272180130        2.86221811222234       -0.57992611638236
O           -7.16623261799008        0.10903567438150        1.31867423081793
H           -7.89319100967810        2.13196685170380       -0.26421523527782
C           -6.86253995986864        3.82386288400985        0.57526062697921
C           -7.71170518992963        3.63667685298379       -1.76582359392021
H           -6.13776814106085        4.57566500930741        0.27010054514430
H           -7.77783128710382        4.33172362488783        0.87117359593299
H           -6.46742963704060        3.30993674753791        1.44925410023775
H           -7.96954558848446        2.95829731257398       -2.57492391767483
H           -8.60921979054461        4.17602887618214       -1.47206283121739
H           -6.98347845575987        4.35486031137651       -2.13626787847648
N           -6.50680646857478       -0.89974070059796       -0.67466687182479
H           -8.72259747090789       -0.37856006937631        0.54559010777077
C           -7.41632231339721       -2.01483920448091       -0.64851156390827
H           -7.10886964310295       -2.65710784057188       -1.48230780832052
C           -7.38081005163005       -2.82816938723214        0.65290840988166
C           -8.86820643140385       -1.59982499693675       -0.93021903186544
H           -7.76189808033173       -2.25287896232447        1.49377147862474
H           -7.98299414896807       -3.72577494004715        0.53608559926694
H           -6.35379345067930       -3.11298263179886        0.86995164374752
O           -9.37301390914091       -0.66771744393365       -0.12229555076379
O           -9.52052236602540       -2.09708676727601       -1.80336553769592
