42
 energy: -62.486133520514 gnorm: 0.000478037188 xtb: 6.7.1 (edcfbbe)
N           -2.00352026380476       -0.45037948017770        1.67461478357850
H           -1.04061312956460       -0.75545296057172        1.59699559253248
H           -2.44501308447840       -1.02047259668681        2.39133017007310
H           -3.05855111709024        1.14257520908468        1.83483183676771
C           -2.71052842165465       -0.62865071335065        0.40599633330893
H           -2.07522661417587       -0.20249028880419       -0.38156456540624
C           -3.04338784012764       -2.07706475192695        0.05753208779709
C           -3.96198868580893        0.23406886484026        0.46641992803286
H           -3.59611846255706       -2.54394802042957        0.86939942150343
H           -3.66084649566186       -2.09737275046393       -0.83362120106918
H           -2.13173193123783       -2.64406763631077       -0.11979651151360
O           -3.90059605507584        1.25224861504212        1.34827224468912
N           -4.93466239685708       -0.02448300341750       -0.28475792759856
H           -8.46357805816569        1.36219005373111       -0.60599840924731
C           -6.11853970255550        0.79679416741744       -0.28342466088864
H           -6.13992751024599        1.47539385357473        0.58561914673383
C           -6.18121563270404        1.62571815514357       -1.58805870406367
C           -7.31729063266361       -0.11493895764475       -0.15711703474586
H           -5.22205553102982        1.51537366350569       -2.09677580893785
H           -6.93816150957219        1.20267655458729       -2.25386088963706
C           -6.45603017982654        3.11843589587879       -1.36188255269042
O           -8.53783709846647        0.42925223230152       -0.36802649333656
H           -7.28408160405276        3.23517254797314       -0.64916277103507
C           -5.22537849297481        3.81027448917242       -0.78008585071105
C           -6.86231281380124        3.78054901553718       -2.67735911925195
H           -4.41273808010290        3.79552529259408       -1.50317431260993
H           -5.44955608956376        4.84607874591595       -0.53569795071394
H           -4.88553245275052        3.30998632776289        0.12317452286157
H           -7.77048565101456        3.33342279632057       -3.07709961231881
H           -7.04178162536242        4.84262303531518       -2.52830364978465
H           -6.07190000077517        3.66688226614486       -3.41551151117371
N           -7.13995222395677       -1.30832521811770        0.18755448227580
H           -5.98684493788326       -2.54230928599056        0.68960714102276
C           -8.19727249387592       -2.26615870953724        0.38729944435850
H           -8.99335950521454       -1.86992619535176        1.03039369108437
C           -8.81451387711666       -2.73591799008260       -0.93413928581605
C           -7.54761961856688       -3.47554476507543        1.08375511813440
H           -8.03109918181878       -3.08293494136281       -1.60482275062690
H           -9.50417685996539       -3.55207785010169       -0.73760179737728
H           -9.34920651464905       -1.91579221816624       -1.40642302572897
O           -6.22293916627959       -3.40832524715230        1.11389903724971
O           -8.17801971251714       -4.39063377465115        1.53650612674395
