42
 energy: -62.486130627039 gnorm: 0.000539420801 xtb: 6.7.1 (edcfbbe)
N           -1.69899989429413       -1.95106287350276        0.34321673554604
H           -1.18677847754034       -1.38475233134990        1.01196851905855
H           -1.03728362145001       -2.56962265302237       -0.11139921624038
H           -3.50303123062029       -2.05189831004964        1.11704725182288
C           -2.37053296037843       -1.10327318501582       -0.64219171338895
H           -1.75919346384904       -0.26559062899047       -1.00401196365288
C           -2.81855500730070       -1.95204003626147       -1.83294605560707
C           -3.61573683085048       -0.54317575563465        0.01286899672225
H           -3.41814768982416       -2.79112522604706       -1.48720838594545
H           -3.42044092612708       -1.34544768440245       -2.50191963889581
H           -1.95515164604251       -2.33485938065671       -2.37310934267471
O           -4.13235291180483       -1.31342509315544        0.99069742905865
N           -4.09393475309914        0.54861935917184       -0.38416715003157
H           -6.96536999422874        0.51604513601014        1.92036904265156
C           -5.34716922645374        1.02514780090234        0.15881205488545
H           -5.18314181559419        1.35050819515602        1.19823625378206
C           -5.79930341107040        2.21169940809969       -0.70590539599502
C           -6.40808611948272       -0.05150162308807        0.14085323937195
H           -4.97322709065729        2.92261629389770       -0.74741412200513
H           -5.95533598366645        1.81981084908909       -1.71138712808865
C           -7.07120411657520        2.91576404462624       -0.22288953887555
O           -7.25561382036944       -0.09411512833193        1.23210382382593
H           -7.85495457017408        2.16845192581994       -0.05437237267678
C           -6.83557408562251        3.69137019743076        1.07289011728233
C           -7.56537358408989        3.87006627598516       -1.30858470866514
H           -6.07518936527119        4.45406316171717        0.91900728110950
H           -7.75274684504287        4.18233861975569        1.39072142680631
H           -6.50486628273065        3.04420532899902        1.88277923272971
H           -7.79174330707926        3.32448931779436       -2.22096570416826
H           -8.46750191992487        4.38333732186875       -0.98385834776255
H           -6.80560303233661        4.61590310590397       -1.53167236211106
N           -6.48934684974207       -0.80870097189356       -0.84908067427775
H           -8.77011497380480       -0.43205829787729        0.30363565725894
C           -7.41274365563718       -1.89434154020514       -1.04831123724865
H           -7.06233523436606       -2.40904016161655       -1.95089268247351
C           -7.46756839785856       -2.89570837476600        0.11356735162298
C           -8.83813450505398       -1.40768269529011       -1.34986403748769
H           -7.88280946901280       -2.44262845910960        1.01103415397730
H           -8.08035975154642       -3.74792468618223       -0.16949231096066
H           -6.46007607991242       -3.23860102497045        0.33794384362224
O           -9.38097598803627       -0.60044369517304       -0.43856000373026
O           -9.43958236017495       -1.74744260658694       -2.32861316729697
