42
 energy: -62.486133508733 gnorm: 0.000481104200 xtb: 6.7.1 (edcfbbe)
N           -1.68926559376278       -1.87053724292518        0.55737772522907
H           -1.17189814005744       -1.29783792779710        1.21625243563867
H           -1.04419477575179       -2.53955330875014        0.15384995387430
H           -3.48159785410978       -1.88435008882553        1.29335172934080
C           -2.29364133903568       -1.04240616793753       -0.48659052620343
H           -1.65483639245986       -0.21533143136566       -0.82428385358507
C           -2.66701173134157       -1.90856225081044       -1.68996954749926
C           -3.57402693923760       -0.45899013939905        0.07874525809267
H           -3.29489210174646       -2.73824234436901       -1.37278813892950
H           -3.21654483105125       -1.30783671590169       -2.40778888093990
H           -1.77234111752861       -2.30521401962235       -2.16538104691414
O           -4.10873084797131       -1.15640787276473        1.10270151643703
N           -4.06202144718056        0.57884347268161       -0.43103338266247
H           -6.26238370637858        0.30269506662278        2.16174901072058
C           -5.33360441808331        1.10532156815534        0.02180198927347
H           -5.16601938467960        1.64100084140858        0.96811632617056
C           -5.83392465419326        2.08020982693575       -1.05092117855523
C           -6.35219501736130        0.00816369563826        0.24052126590808
H           -5.04900471844572        2.81711005020902       -1.22461281355753
H           -5.96448581386939        1.49698788845102       -1.96211110921833
C           -7.14968944262371        2.78210788384461       -0.70301929490654
O           -6.82854492486182       -0.15107180018142        1.52649544879729
H           -7.89805629857097        2.02247677888843       -0.45096692232900
C           -6.99670773454083        3.73521937760847        0.48119525206348
C           -7.64843765014950        3.55131235902189       -1.92459245606798
H           -6.21799633951039        4.46775443204882        0.27856817526359
H           -7.92930605630203        4.26630905109726        0.65740550063600
H           -6.74037855004119        3.20435690546303        1.39510581758089
H           -7.79996496736180        2.87647419020900       -2.76288319872592
H           -8.59318531971677        4.04354857291406       -1.70639056958691
H           -6.92429687249908        4.30890187371417       -2.21687613927027
N           -6.72202057793325       -0.67314311057269       -0.74039617008074
H           -8.55404982665466       -0.42120630462061        1.05275373897439
C           -7.65432050580188       -1.76940523669575       -0.73603562005374
H           -7.58501280926543       -2.21147026307037       -1.73697053922270
C           -7.36520077882394       -2.85283289614729        0.31248072944895
C           -9.10692870094014       -1.29935550762885       -0.56607082887540
H           -7.49536428870286       -2.47481983408009        1.32395841457338
H           -8.03758602156734       -3.69323067378154        0.15863195789816
H           -6.33833889262427       -3.19389532674599        0.20259188489295
O           -9.35536489120487       -0.55865810017385        0.51374331223474
O           -9.97281897867993       -1.59646118671342       -1.33878001820779
