42
 energy: -62.486133520074 gnorm: 0.000478814116 xtb: 6.7.1 (edcfbbe)
N           -0.74936220677140       -0.12920118565732       -0.80790156614412
H           -0.00163469438098       -0.62284427605247       -1.27916976465977
H           -0.44104327702653        0.06297910825254        0.14118248083041
H           -1.90080753663858        1.33976587696051       -1.10273181367903
C           -1.97528525832404       -0.92438890260308       -0.78140459509359
H           -2.11437370114972       -1.33914055410146       -1.78889550951062
C           -1.96573231594470       -2.06290174633602        0.23691284265150
C           -3.13614056713515        0.04652276069905       -0.54888049217218
H           -1.82014421743123       -1.66537449826530        1.23930482635994
H           -2.91165194644527       -2.59357825811439        0.21656912487728
H           -1.16177577987899       -2.76139005609271        0.01291040752407
O           -2.84831072289759        1.31856524630206       -0.84821897381796
N           -4.21323373367300       -0.41871474058846       -0.09958762391337
H           -5.08434519167421       -1.78300147931752       -0.96562571423987
C           -5.48483421343684        0.24112714850134        0.09306031772827
H           -5.62683233608544        0.34494738671734        1.17478295541681
C           -5.61527504593229        1.62253034360440       -0.57576049722546
C           -6.53187388420426       -0.74142205991522       -0.41997599952279
H           -4.83839208594708        2.26360382258270       -0.15670845632693
H           -5.40472412826412        1.50151102191492       -1.64155570687184
C           -6.96409165881832        2.32843765743989       -0.41808872277097
O           -6.05941958200590       -1.82272828650004       -1.05542977008110
H           -7.73480306564333        1.72665446441424       -0.90490107159300
C           -7.33949480216347        2.52308771965317        1.04840528668729
C           -6.90085285597959        3.68258887808767       -1.12400351517711
H           -6.56832116974088        3.09174895067390        1.56488336721535
H           -8.27595761779440        3.07021181750262        1.12473116154920
H           -7.46206202431021        1.56694553812322        1.54986889917770
H           -6.64393598137721        3.55948575660959       -2.17354940207433
H           -7.86386064758791        4.18346572876179       -1.06471767486231
H           -6.15158933526062        4.32133440195309       -0.66048049317102
N           -7.75840274982106       -0.52188885319089       -0.22459959508289
H           -9.15948649634519        0.55863870023029        0.31627712026680
C           -8.76637488685422       -1.44241443090573       -0.70646015921136
H           -8.56992532612896       -1.76017084864523       -1.73806207330991
C           -8.86657382432943       -2.68844823168740        0.18215116819027
C          -10.11734584169642       -0.71716076937633       -0.65834978306236
H           -9.02392386457088       -2.39387626979362        1.21797908113323
H           -9.70382035678121       -3.29771979969767       -0.14645443540623
H           -7.94863486615596       -3.26634771145788        0.11261546965180
O          -10.09140903582948        0.41500078478547        0.03503462146838
O          -11.11013242730518       -1.14846599753581       -1.17622071162684
