42
 energy: -62.486133515647 gnorm: 0.000478907070 xtb: 6.7.1 (edcfbbe)
N           -1.52034892763311       -1.38754380043452        1.12326616783494
H           -0.54122673275170       -1.62065895284413        1.00979024084888
H           -2.01056578055946       -2.23929472509879        1.38341049328355
H           -2.65470656985362       -0.08345837442273        1.98279705791816
C           -2.07968050142462       -0.85268840488440       -0.11670126259649
H           -1.38480184035006       -0.08444499991269       -0.48062956568546
C           -2.30319588669638       -1.89031368959860       -1.21513334321981
C           -3.37119348159317       -0.13589080167265        0.25173402344304
H           -3.01524223506945       -2.64225611090039       -0.88176447699095
H           -2.70342134651938       -1.40571547521973       -2.09871384033628
H           -1.36495309191886       -2.37909230438188       -1.47042013703369
O           -3.45117293871605        0.26017872084851        1.53021984552107
N           -4.24690270752430        0.06262845463443       -0.62978965414481
H           -5.64051699237365       -0.53437884260610       -2.26018150917455
C           -5.48943803668080        0.74082416702348       -0.31040045555906
H           -5.56298241508955        0.99844212452703        0.75074213181092
C           -5.60917233681776        2.00211352213437       -1.17918200592442
C           -6.57470200481417       -0.25225234617636       -0.65098098044538
H           -4.85136108424672        2.71427567034627       -0.84608116568671
H           -5.37509546642467        1.73558844583668       -2.21375714532587
C           -6.99289831762468        2.65865220478830       -1.12774068050244
O           -6.48560295608043       -0.80710965163255       -1.87166918395640
H           -7.74056727446278        1.92513168394406       -1.44989735173071
C           -7.34750712981682        3.12023336305159        0.28315393575219
C           -7.02826588468905        3.84182444486335       -2.09392389286705
H           -6.57863550955949        3.78652227813850        0.66892231984766
H           -8.29327810824849        3.65664004881333        0.27392317095517
H           -7.44723056896429        2.27291491142664        0.95536861889930
H           -6.80191022080644        3.52221797755174       -3.10884986625859
H           -8.01306188025353        4.30240015157774       -2.09299197779697
H           -6.29841463408889        4.59296372650032       -1.79902844505993
N           -7.44306803745848       -0.55719846376443        0.20823384589028
H           -8.34201717817161       -0.15942303214068        1.72718522810837
C           -8.48157290981595       -1.52580744689364       -0.07176082596819
H           -8.91463836639713       -1.38218964332822       -1.06963080386762
C           -7.96041628244847       -2.96273601802008        0.03749654843017
C           -9.58535470251297       -1.32587237656090        0.97784371888140
H           -7.48143417299461       -3.11060970806367        1.00351414784812
H           -8.79339969318649       -3.65380186808008       -0.05695362925959
H           -7.23780290515885       -3.15563473001875       -0.75154960764260
O           -9.24590628549593       -0.48639877005162        1.94830079075230
O          -10.64252786288707       -1.89080717784351        0.93076453028338
