42
 energy: -62.486133509393 gnorm: 0.000479644711 xtb: 6.7.1 (edcfbbe)
N           -1.47926707873874       -1.71428351433331        0.50481728352251
H           -0.52346997480858       -1.92903004930791        0.24788876627280
H           -1.97210001950807       -2.59811288399429        0.60555050333982
H           -2.50862816726401       -0.65055506858961        1.73365982940975
C           -2.12665320200010       -0.90600487185084       -0.52985983152027
H           -1.43534184420324       -0.09338265187199       -0.78860824792111
C           -2.50543726788884       -1.66966777362667       -1.79660075474842
C           -3.34847269639151       -0.25739302735238        0.09948703089264
H           -3.15644389743174       -2.50574905744215       -1.54800194029886
H           -3.04660833695891       -1.00710194090920       -2.46312278959019
H           -1.61570085295565       -2.04734586546795       -2.29645672209750
O           -3.33473363931587       -0.20875167581889        1.45199198674421
N           -4.26402609708136        0.19638365113049       -0.62960707193603
H           -6.34615366160067        0.06045115729395        2.06386545176863
C           -5.40689920254951        0.85563842873893       -0.03676534036156
H           -5.14997083307139        1.28579300965921        0.94380301105434
C           -5.87300408135663        1.95100340406731       -1.00378334051361
C           -6.50191772972071       -0.17167847912840        0.13477461587514
H           -5.04626522574763        2.64563172739036       -1.16121745210488
H           -6.08715749490670        1.45128003534780       -1.94788129752385
C           -7.11346437533729        2.71457565684400       -0.52989691215368
O           -6.91516320204511       -0.40161240732155        1.43551487074220
H           -7.89311117643762        1.99050636422326       -0.26769732933060
C           -6.81792910398307        3.58555301055257        0.69030450252656
C           -7.64024983592687        3.58412842588203       -1.66945898868499
H           -6.02752415289156        4.29792392957765        0.46247787570936
H           -7.70698196792733        4.14171290268919        0.97871664277300
H           -6.50587989929064        2.99039011330905        1.54530779393199
H           -7.89157318089276        2.97072083211780       -2.53061622455352
H           -8.53362693032468        4.12027545809508       -1.35818484833388
H           -6.88896855342265        4.31149476503772       -1.96985674385385
N           -6.94577014962092       -0.77417364392361       -0.86456360554806
H           -8.68233494052604       -0.52970387535090        1.02506429533486
C           -7.94895851750888       -1.80468309536481       -0.89041193358610
H           -7.95057688011551       -2.18077017605972       -1.92000169741040
C           -7.69214279690115       -2.97445345436888        0.07031724784935
C           -9.35889149313704       -1.25390482347256       -0.62361836318289
H           -7.74622125171284       -2.65798147507430        1.10971296380118
H           -8.43223163955754       -3.75215744670140       -0.10120041636990
H           -6.70099788847813       -3.38178372074452       -0.11694061550962
O           -9.51151921310596       -0.57503708539913        0.51346456387387
O          -10.27382280634164       -1.44017054035543       -1.37343161481996
