42
 energy: -62.486133502759 gnorm: 0.000480840212 xtb: 6.7.1 (edcfbbe)
N           -2.85574363926909       -2.03774087245666        1.80897175950414
H           -1.98286694754430       -2.52896628152470        1.96110474669965
H           -3.56897183093163       -2.73547437590543        1.60622623436214
H           -4.00587729632018       -0.69313031203644        2.56140837770413
C           -2.74359809689759       -1.11190921393984        0.68359519281963
H           -1.86210065381926       -0.48117418966964        0.86623867312065
C           -2.61208224699974       -1.77343060424467       -0.68697498295698
C           -3.95656308250119       -0.20019239079339        0.75359891857080
H           -3.40139001028715       -2.50824190779680       -0.82412771192729
H           -2.70318904043716       -1.01789893989782       -1.45920272044942
H           -1.64908397719440       -2.27172715248664       -0.77684884393146
O           -4.48336120209007       -0.06227077118479        1.98322241308147
N           -4.39482777818499        0.37018684880255       -0.28004913587922
H           -7.75667672594821        1.93422734320203        0.66975316156349
C           -5.57616870586126        1.19868498711621       -0.18037546445190
H           -5.44774199767409        1.95838384050024        0.60599586841717
C           -5.75000556939930        1.86271981561519       -1.55868679534737
C           -6.77536267238006        0.35120001376905        0.18817551923165
H           -4.79774317734837        2.33974032885482       -1.79691368341161
H           -5.89861993075455        1.05686793436658       -2.27934493473948
C           -6.87727256457676        2.88987311007705       -1.70070533752755
O           -7.89431604032105        0.98123561659776        0.60469694288688
H           -7.83606914022680        2.41861251778133       -1.45691228280339
C           -6.66356698803846        4.10536040939817       -0.79817102567368
C           -6.95125651424220        3.34754283256323       -3.15767706309068
H           -5.72097623635385        4.58956802689062       -1.04436566935988
H           -7.46491460481527        4.82709088956917       -0.94147430369940
H           -6.63703894814742        3.84079134059694        0.25758289865425
H           -7.12896907840194        2.50178960126448       -3.81729127581936
H           -7.75945666149136        4.06283390901321       -3.29206045930638
H           -6.01886464438838        3.82317149017903       -3.45337055350436
N           -6.67251453874446       -0.89998569964972        0.14040848070293
H           -5.53807350588768       -2.20870341255851        0.14914025223282
C           -7.69445505006637       -1.82293495732882        0.55817684962510
H           -8.24347082557474       -1.46737138291508        1.43942830792767
C           -8.69013337275881       -2.11779167249619       -0.56756911113322
C           -6.95570298753404       -3.12278913256465        0.92143462637533
H           -8.15584868064023       -2.42020725421249       -1.46602986487145
H           -9.35413843563639       -2.92038974783685       -0.25908423526222
H           -9.27516148214547       -1.22792322689947       -0.78629156843769
O           -5.67559012232612       -3.10669076123946        0.55743701088452
O           -7.47642626810477       -4.05496232638425        1.46586573668154
