42
 energy: -62.486133511514 gnorm: 0.000480208837 xtb: 6.7.1 (edcfbbe)
N           -0.88033030528888       -0.33517226070604       -0.43959469211224
H           -0.11962123903227       -0.72650473962555       -0.98137178060279
H           -0.70824731224661       -0.56083987282420        0.53627241666128
H           -1.86536264297552        1.31611027229571       -0.27779788694956
C           -2.16467148709694       -0.89579731205564       -0.85967975352612
H           -2.19009387217595       -0.86641987684202       -1.95645578579587
C           -2.42569290905253       -2.32473099463746       -0.39105926586945
C           -3.25380025451541        0.05575643688112       -0.38323560164610
H           -2.35619762597851       -2.38241197055514        0.69359011435055
H           -3.42750911280748       -2.61650699886109       -0.68661479361325
H           -1.70225698555891       -3.00943708184768       -0.82908275049469
O           -2.83554718060917        1.31475110646194       -0.14963312324535
N           -4.42668722491396       -0.37013348034901       -0.24610345445148
H           -6.47539689676748       -0.47990650896447        2.15797162984731
C           -5.52479859475955        0.49145400335052        0.14032062130699
H           -5.31359581009850        0.93866331165588        1.12414805460146
C           -5.77917396343300        1.61023054346742       -0.88117324994595
C           -6.73743888086688       -0.40790605192959        0.22916216983189
H           -4.87119298470004        2.20708124650203       -0.97212873784239
H           -5.98091627848866        1.12310898844652       -1.83540599293612
C           -6.95490883743586        2.52388416992357       -0.52132667911607
O           -7.11967027695060       -0.78131788764932        1.50650614795604
H           -7.84261116161474        1.90563797049272       -0.35030922732384
C           -6.67656285429520        3.34907083471438        0.73389041606778
C           -7.24287120222727        3.45385793393207       -1.69832876597251
H           -5.75498039645163        3.91589043367838        0.61736862083345
H           -7.49037665996890        4.04871894360608        0.91016047653440
H           -6.58451525793609        2.72013294983974        1.61635881440466
H           -7.47482660033235        2.87725121255896       -2.58990854362495
H           -8.09072928822299        4.09779509904160       -1.47717975123300
H           -6.37853876810259        4.08142736274562       -1.90614865036613
N           -7.30476596627906       -0.78753745001258       -0.81553946182360
H           -8.90727520035965       -0.66106157389157        1.20303733958384
C           -8.42369449182658       -1.68581171823590       -0.92717699883557
H           -8.52123834643981       -1.89445352021978       -1.99889974149787
C           -8.25540839780308       -3.01126367092195       -0.17164834803036
C           -9.74287210253194       -1.03191601256117       -0.48826705392689
H           -8.22980719914902       -2.85754967502065        0.90486206467882
H           -9.08216437529651       -3.67415754621882       -0.41462660895738
H           -7.32237396485959       -3.47969803279064       -0.47636031285254
O           -9.76042715895484       -0.53301390336121        0.74800898203497
O          -10.70704118908088       -0.98930046341809       -1.19766578705002
