42
 energy: -62.486133505483 gnorm: 0.000480363561 xtb: 6.7.1 (edcfbbe)
N           -1.27071908386953       -0.74126110061211        0.00456875947680
H           -0.58120800628195       -1.47621473403259       -0.09912046710193
H           -1.13467472163492       -0.32486741929200        0.92204822066874
H           -2.01714349072005        0.74125018612863       -0.97297355712631
C           -2.62609911151351       -1.28361433575279       -0.09085157495829
H           -2.66142718096824       -1.90100460548614       -0.99833230526531
C           -3.06882759813365       -2.12153012360468        1.10474864442760
C           -3.56547819540746       -0.10485901940115       -0.33025283166858
H           -3.01051082216275       -1.53141418895905        2.01657832127097
H           -4.09929787665666       -2.42872883714966        0.96555923098411
H           -2.43690760671573       -3.00129798311957        1.20849062009347
O           -2.97112703632079        0.95314050055351       -0.92303419638313
N           -4.76372610976733       -0.22357211265387        0.01035431275302
H           -6.99883018544872        0.71525918805957       -2.32687542539256
C           -5.83808439454489        0.72815114427962       -0.13048786353894
H           -6.07803926301884        1.02852282755691        0.89807717561063
C           -5.59333050810986        1.98311461285606       -0.97695305625532
C           -7.01014904246027       -0.12429023854186       -0.60081822321755
H           -4.69735742405808        2.47592224085837       -0.59893009660621
H           -5.36781021912824        1.69753767199195       -2.01047639452752
C           -6.76023266957135        2.98282027661695       -0.93217424051500
O           -7.46592086110210        0.00922312276725       -1.86140474072613
H           -7.71366677029241        2.44889516537685       -1.02185922456679
C           -6.77483811424256        3.74569450547938        0.39086761168772
C           -6.64463192517536        3.96664420028802       -2.09624671161028
H           -5.85077315875344        4.30648049262592        0.51495125421337
H           -7.60615429088980        4.44650777580358        0.41226094000887
H           -6.88405211752201        3.06848087515193        1.23414747694616
H           -6.69471695297554        3.45333266097010       -3.05493667574979
H           -7.45142021022323        4.69470781336923       -2.06032689681426
H           -5.69845254463122        4.50091007533687       -2.04415424022882
N           -7.46052175530940       -0.98370114649728        0.19948152810981
H           -7.45190865060675       -1.71997142844788        1.83400146456875
C           -8.51041896984797       -1.91076282923825       -0.15065935390983
H           -9.37670455068771       -1.39787396043192       -0.58718384443446
C           -8.03178252851362       -2.99073819372746       -1.12765155014086
C           -8.94452091465964       -2.59984762011627        1.15359761349993
H           -7.13720552155035       -3.47105227840349       -0.73652759960180
H           -8.81382290305329       -3.73498517743584       -1.24934159627717
H           -7.80194372052036       -2.54528519596300       -2.09179327195780
O           -8.13317910127942       -2.35136136793032        2.17292157841463
O           -9.90857515029061       -3.31038726539015        1.22964636849922
