42
 energy: -62.486133512336 gnorm: 0.000480171450 xtb: 6.7.1 (edcfbbe)
N           -1.91087448275827       -1.30317305832842       -0.75385613435337
H           -1.68636407166781       -0.71650459204668       -1.55057157537320
H           -1.76209447040552       -2.26898652346863       -1.02206338386193
H           -1.51119872727340       -0.23765554807590        0.77492686863355
C           -3.28903600409848       -1.09092062587457       -0.31183904723089
H           -3.99830953687705       -1.03982661615782       -1.14717057247613
C           -3.69423255383394       -2.22456327301714        0.63280627403645
C           -3.30977109491908        0.20074967374357        0.52132552708393
H           -2.96411483928511       -2.31321779615802        1.43453029500805
H           -4.66623632981446       -2.01307176864603        1.06926093631268
H           -3.74428882541356       -3.17050783684035        0.09658649629487
O           -2.13747364297196        0.43290842776246        1.12131240789388
N           -4.26039079315077        0.96841209508788        0.81182569181939
H           -5.63811713122685        0.39610494479062       -2.10376638243202
C           -5.56792153564944        1.14535891246003        0.25540449318892
H           -6.17720134867199        1.43971685177663        1.11912069724285
C           -5.49762680235346        2.33862268565804       -0.71555672261635
C           -6.28116488730920       -0.05146305137880       -0.34908080814027
H           -5.02020039819361        3.15346304649903       -0.16936271171807
H           -4.82884934987590        2.09546008042434       -1.55049230167313
C           -6.85511104557279        2.81382682624767       -1.25046657415363
O           -6.12095978838252       -0.31896964390583       -1.66845011958743
H           -7.36483518205019        1.98670191109681       -1.75882333664479
C           -7.76102265698623        3.30618636613694       -0.12445474725116
C           -6.62774816492415        3.93309858930966       -2.26658420324532
H           -7.25250973230541        4.06269938624800        0.46850140808022
H           -8.66514010016463        3.74517910057837       -0.53957641829103
H           -8.05490580401723        2.48942833166707        0.52931992546395
H           -5.99734049741962        3.59725037875400       -3.08788221717348
H           -7.57526814830841        4.26769866892455       -2.68124356789558
H           -6.14371173412394        4.78170466187478       -1.78872326466608
N           -7.04490678897673       -0.73236014386949        0.38532058666563
H           -7.99338485304282       -0.89740920958100        1.94558343165098
C           -7.84671400621535       -1.81608057482225       -0.13758607902970
H           -8.30032628654149       -1.54256851821466       -1.09942958027453
C           -7.05960908085887       -3.11643332479038       -0.32775631364829
C           -8.96911798152590       -2.08159579262255        0.87840226207684
H           -6.60056946247852       -3.41945566425903        0.61074809346854
H           -7.74268369310371       -3.89600415913854       -0.65315898474858
H           -6.28683951598070       -2.97769613866540       -1.07943238555323
O           -8.80726732474349       -1.44429541998943        2.03104339402838
O           -9.89075091288770       -2.81377964010012        0.65030501052920
