42
 energy: -62.486133511012 gnorm: 0.000480252019 xtb: 6.7.1 (edcfbbe)
N           -1.53281009123460       -2.04530028509086        0.55749747298661
H           -1.68043994891361       -2.12721581939346        1.55815930902819
H           -0.54977092682618       -2.20754899672643        0.37337771880267
H           -3.21872154836788       -2.60199863616770       -0.17246285949245
C           -1.93958504965917       -0.72378091480407        0.08252712364682
H           -1.65529153864447        0.09934882008628        0.75129029293866
C           -1.34770168419285       -0.46983516006180       -1.30439347789448
C           -3.45765035659416       -0.74146150907444       -0.03344452351259
H           -1.62069063522573       -1.27524745031594       -1.98352563166030
H           -1.72501943057851        0.47016223451076       -1.69590556378600
H           -0.26262288486823       -0.41582092050287       -1.24790745701892
O           -3.96202559817842       -1.97367122211537       -0.28674746656522
N           -4.07967690968383        0.33609061860414        0.07928184684915
H           -5.40439905526170       -1.35916766456114       -1.54015272130747
C           -5.48470095941633        0.62458241941971        0.00767443292100
H           -5.73279396381955        1.07020541889505        0.97661663727926
C           -5.65233043093618        1.70436530972981       -1.08732188775308
C           -6.50388711088164       -0.46490691765307       -0.25475721140893
H           -4.86735644875760        2.44529115842026       -0.92737209684185
H           -5.47432334807284        1.23582461744978       -2.05950877306002
C           -7.01836487993512        2.39690078293578       -1.10566840358726
O           -6.33386570198852       -1.31585095769275       -1.27866210089399
H           -7.80215102566745        1.63504076689675       -1.16253463304686
C           -7.24647598414877        3.23452262763876        0.14943390525204
C           -7.11648039195367        3.28341765798354       -2.34674561675835
H           -6.46297059100896        3.98232129272168        0.25318389034669
H           -8.20397846144435        3.74537664026930        0.08709815325255
H           -7.25634102628754        2.61443072843272        1.04116750524450
H           -6.98927539247099        2.69750780817577       -3.25433750368537
H           -8.08843135352559        3.76841273117059       -2.38844835016940
H           -6.34884055064404        4.05425411522558       -2.32411265049080
N           -7.57111635180882       -0.41644687850122        0.41951218770877
H           -8.69547798883607        0.52778407084152        1.46495569917881
C           -8.66912840769761       -1.32313764583525        0.16537400697278
H           -8.85997051933730       -1.44011677515051       -0.90941961058348
C           -8.41666837268520       -2.70658169346136        0.77365494172892
C           -9.91938579501540       -0.71741839758045        0.81980105769375
H           -8.17706962321704       -2.60809203339022        1.83056969669322
H           -9.31095567710876       -3.31372528734343        0.66539177874271
H           -7.58572752535263       -3.18868318318374        0.26479467122859
O           -9.66446922860316        0.36206425881791        1.54986671459967
O          -11.01724849297274       -1.18392143488760        0.69113425093751
