42
 energy: -62.486133529874 gnorm: 0.000477171195 xtb: 6.7.1 (edcfbbe)
N           -2.79523580916877       -2.33473156440917        1.29082971055443
H           -3.21284683889248       -2.42023507769807        2.21205766040323
H           -1.83201040037120       -2.64209361245266        1.35137173399612
H           -4.31293653654025       -2.60299824940632        0.20323042182564
C           -2.87833028680679       -0.95957597327343        0.80627944567340
H           -2.64064463226997       -0.20295032739769        1.56635051661490
C           -1.94279321682179       -0.77730086202247       -0.38911784820360
C           -4.31737521801101       -0.73766339465908        0.34407530450297
H           -2.17419341679626       -1.50929942209504       -1.15981101414623
H           -2.06764143269384        0.22036941189772       -0.79838966852152
H           -0.90640687151742       -0.90610880070600       -0.08397759851075
O           -4.93416747112522       -1.87437350157428       -0.02272922495234
N           -4.72661285624934        0.44368989616459        0.28769287888075
H           -8.00743195439168        1.29681939123742       -1.47106959764061
C           -6.00386820711391        0.99425241100681       -0.07294142539122
H           -6.25366280522696        1.65818739043525        0.76984361361278
C           -5.77359937464031        1.87091034096851       -1.32686747201767
C           -7.19848614985115        0.06497876680437       -0.22400957438231
H           -4.69806177531310        2.04258666088741       -1.39839680691465
H           -6.06049593661065        1.30816573770940       -2.22021985546549
C           -6.47762155913678        3.23749524378656       -1.29175224722365
O           -8.20747392147582        0.45815017556185       -1.03811863934614
H           -7.48363997980382        3.13504303073784       -0.86346378801718
C           -5.69838142921220        4.21338692480867       -0.41267023700523
C           -6.61111180267001        3.79775478557795       -2.70735787414354
H           -4.72315046438291        4.41565103238876       -0.84968254704679
H           -6.23514561853443        5.15463606917947       -0.31841983011142
H           -5.54610138575518        3.80273930656360        0.58222992718885
H           -7.20925875006672        3.14262564837756       -3.33851785985372
H           -7.08693969332192        4.77528491972078       -2.68598202626106
H           -5.62905529799699        3.90583894960218       -3.16230155234047
N           -7.25705216002457       -0.98798616863790        0.45686398027798
H           -6.36926898676501       -2.31968801576742        1.36639861410648
C           -8.37516245795729       -1.89829433449179        0.42256741356808
H           -9.32333525486267       -1.38502629664848        0.62355883032331
C           -8.48082359228499       -2.64178582506904       -0.91506871770695
C           -8.11895048003521       -2.94404197848060        1.51668786694612
H           -7.52599107057890       -3.10735001647290       -1.15156558069825
H           -9.24772686931081       -3.40813079477605       -0.84293297149351
H           -8.74108094530862       -1.94451467929695       -1.70695773357903
O           -6.84373865548827       -3.02049616334431        1.87674292745080
O           -8.97837973119216       -3.64594702747578        1.97447657404665
