42
 energy: -62.486133519400 gnorm: 0.000479476212 xtb: 6.7.1 (edcfbbe)
N           -2.41197790947355       -0.79493831360442       -1.98624504813215
H           -2.45583560405858        0.06688304590594       -2.52058714411424
H           -2.47617413732904       -1.56766986223181       -2.63925049661632
H           -1.39595765883170       -0.36250151470935       -0.42195645077870
C           -3.50698514820624       -0.85811009856586       -1.01586667807662
H           -4.47248712556172       -0.54582293298791       -1.42926924469452
C           -3.61190060651776       -2.29121639444107       -0.48795975940581
C           -3.11959922608592        0.05669708123097        0.14962424841082
H           -2.62901603015032       -2.64397009286440       -0.18221604776560
H           -4.27726771779846       -2.33705687044499        0.36920950644876
H           -3.99984062213401       -2.95111584911321       -1.26146834066845
O           -1.79827044361992        0.10194803119512        0.34316921941846
N           -3.83076098548158        0.72105731999619        0.94836050900303
H           -5.97906266906815       -0.55145915152860        2.73546490753647
C           -5.25004169624270        0.94504974244792        0.98424543823401
H           -5.43243470791728        1.35854938832905        1.98749287237413
C           -5.62745097672996        2.01081193755612       -0.06090909677939
C           -6.10689990657162       -0.29435747982081        0.83267058483668
H           -4.93533457452875        2.84660629919130        0.05369222470122
H           -5.47316037447081        1.57843784736870       -1.05027634177990
C           -7.07061792835157        2.51341766045334        0.05437763363421
O           -6.39709999768114       -0.96616798401780        1.96948245155872
H           -7.73599310456466        1.64774516009732        0.14320054912791
C           -7.26100000259591        3.40839628429591        1.27684256618134
C           -7.44482193622366        3.28170196903517       -1.21237712524046
H           -6.59178474129845        4.26428359901229        1.22554085157985
H           -8.28388684659681        3.77546326492496        1.31837317027212
H           -7.06024356315945        2.87127593968836        2.20013351544025
H           -7.37088412608461        2.64309962019135       -2.08958712764248
H           -8.46468832326719        3.65266744085665       -1.14547956584107
H           -6.77959005748482        4.13147124197648       -1.34842721522011
N           -6.44266965980458       -0.72030340612738       -0.30454639354583
H           -6.63262118755029       -0.54144644448642       -2.15550242297899
C           -7.17454669134891       -1.95442756466057       -0.48025228649178
H           -6.80570930040293       -2.75543480361038        0.17137253709535
C           -8.67438866371077       -1.75739243509711       -0.22806326343998
C           -6.99327493109012       -2.36040357976766       -1.94656129956355
H           -9.05905376000357       -0.95409003342504       -0.85460312755004
H           -9.20551500666672       -2.67609289765972       -0.46194764094109
H           -8.83987879001522       -1.50272677203147        0.81585110761368
O           -6.72748782977308       -1.32427084988290       -2.74094000170101
O           -7.09960781694384       -3.48421081948117       -2.34729373824100
