42
 energy: -62.486133511306 gnorm: 0.000479712474 xtb: 6.7.1 (edcfbbe)
N           -0.94251847360937       -1.27705657355991       -0.59478520877941
H           -0.58727700728000       -2.15733403837909       -0.94837442303743
H           -0.58813584890087       -1.15995884741157        0.35045390329401
H           -1.05302769988513        0.54234472539537       -0.99831573750262
C           -2.40500875555669       -1.25945480297058       -0.58235451478848
H           -2.73374073225862       -1.69262678749052       -1.53662292649906
C           -3.00913750040170       -2.04781671495060        0.58206923101374
C           -2.84903736320653        0.23312610983512       -0.53188239704549
H           -2.71798831101834       -1.59275411098753        1.52751641897362
H           -4.09310268903054       -2.06267974063317        0.53129573471154
H           -2.65391049099545       -3.07692407750638        0.56323187808341
O           -1.85535989265081        1.08392632014201       -0.84347092775246
N           -3.92701783314996        0.68866058567883       -0.12801182313749
H           -4.65979302618208       -0.90818957979645       -1.51692213867346
C           -5.31550855938923        0.79918556422388        0.02331319077449
H           -5.50847629107796        0.95607075756218        1.08896448706124
C           -5.76315627918224        2.06726401927360       -0.75279532558785
C           -6.13406965183830       -0.39638239262915       -0.44067972892531
H           -5.08280972023394        2.86297150630847       -0.44607110112426
H           -5.59551945095562        1.88533309937234       -1.81728466046798
C           -7.20840910703514        2.52288540852491       -0.54449980133920
O           -5.53808474655908       -1.25008737031508       -1.30074829150819
H           -7.88093719838428        1.73688040834876       -0.89837080448851
C           -7.51429923081453        2.80793417677237        0.92326476514245
C           -7.45985442380033        3.77678065193971       -1.38165819280023
H           -6.82406288404030        3.55122209053208        1.31666990305712
H           -8.52625796182572        3.19206747607086        1.02442629355821
H           -7.43473738422179        1.90616421357006        1.52433133013098
H           -7.25485088157880        3.58799239854655       -2.43277156237906
H           -8.49633159788285        4.09107139535268       -1.28759276694722
H           -6.82137078320921        4.59214510212373       -1.04829921735916
N           -7.35742610733491       -0.46428728600995       -0.14673370478001
H           -8.90630074434663        0.28604772786908        0.54487681512906
C           -8.20018187364488       -1.51741074268136       -0.66800903570867
H           -7.99974332599018       -1.71671006141354       -1.72855179652606
C           -8.02263685598502       -2.81964143795303        0.12154462636672
C           -9.65804972295526       -1.06277163044086       -0.51201742002076
H           -8.17551252577799       -2.63453933498664        1.18313121247791
H           -8.74992982653647       -3.54998236296348       -0.22136121031953
H           -7.01978508385649       -3.21170116022617       -0.02989746854220
O           -9.80682042395643       -0.00716215767964        0.27957337446935
O          -10.57600040041041       -1.62705806903484       -1.03839758133383
