42
 energy: -62.486133507113 gnorm: 0.000479893103 xtb: 6.7.1 (edcfbbe)
N           -2.18733756938264       -2.49053009222343       -0.49931904220445
H           -1.23084713491704       -2.82409319340019       -0.49721450125653
H           -2.57834851295336       -2.68825862156509       -1.41624937932128
H           -3.81409159436860       -2.53896602047014        0.50035171912805
C           -2.23714923991094       -1.05090269655406       -0.24958428237265
H           -1.62577457428101       -0.85420770611586        0.64070134966555
C           -1.73763346653765       -0.18823312493450       -1.40551038042056
C           -3.67987038866056       -0.71050828509508        0.11116675385066
H           -2.31846624376795       -0.39517449013318       -2.30198606134987
H           -1.86356610632832        0.85885048751565       -1.15358668712113
H           -0.68725471261547       -0.39008924422760       -1.60690742291896
O           -4.38465263796831       -1.74860020621438        0.59722604672187
N           -4.06246133378286        0.47793172610280       -0.00064746697824
H           -6.38962766115519        0.49167779983952        2.40136187049465
C           -5.39702182126210        0.97505611781016        0.21428729631041
H           -5.31893264929192        1.68561568071300        1.05089643621920
C           -5.79636301840724        1.74244529749930       -1.05751576972185
C           -6.45467327349319       -0.05833368342248        0.53174383781328
H           -4.96757180153012        2.39796631083776       -1.32657681037974
H           -5.92215149265713        0.99908852452866       -1.84450253031985
C           -7.08696295938496        2.55524507251700       -0.91654205770166
O           -6.92006905915299       -0.08013996840824        1.83405979665033
H           -7.86605153153572        1.91006415798412       -0.49579982412231
C           -6.90190620640707        3.76676327796819       -0.00484005707171
C           -7.54764787067470        3.01292836720369       -2.29887660068355
H           -6.11643227452760        4.41279620611031       -0.39124768760513
H           -7.82380874678909        4.34124180332401        0.04733632716896
H           -6.63584309403627        3.47235790554935        1.00760303683873
H           -7.74473505322189        2.15533682672243       -2.93673393536712
H           -8.46048299399541        3.59864013065732       -2.22213531841190
H           -6.78248652696744        3.62674254452065       -2.76939454041195
N           -6.85681537578437       -0.81842575358493       -0.37574915846002
H           -8.67385289865529       -0.31092795884798        1.37467302975042
C           -7.84242305579922       -1.86096392227447       -0.26708785265968
H           -7.78749925151500       -2.41052380018771       -1.21413848800459
C           -7.62612074587491       -2.83899348257841        0.89554205411339
C           -9.26324937671296       -1.28680240339476       -0.17273259574946
H           -7.78729639965559       -2.35916336990957        1.85820522653329
H           -8.31372943439298       -3.67531822607237        0.79713601728010
H           -6.60366405817108       -3.20673652998177        0.86346389483144
O           -9.47587458275494       -0.43835002030658        0.83445902236914
O          -10.13544450126813       -1.58853105390495       -0.93640015835909
