42
 energy: -62.486132256684 gnorm: 0.000630237162 xtb: 6.7.1 (edcfbbe)
N           -1.11941135953888       -0.68024014390685       -0.98557605504189
H           -0.38749651434711       -1.36887639296042       -1.11144347590117
H           -0.73691761073035        0.06900967453627       -0.41495106683775
H           -2.41711798283707        0.23583873633479       -2.04369290389169
C           -2.28189271793267       -1.26520202296380       -0.31654039174015
H           -2.50449419513094       -2.21423009792912       -0.82248374350698
C           -2.10247965244891       -1.52146954707581        1.17682911038784
C           -3.46209340929758       -0.34054587673364       -0.58939966835306
H           -1.84872262006270       -0.59502012791593        1.68778576055007
H           -3.03288481630356       -1.89491848846742        1.59048857882463
H           -1.31168718322071       -2.24952424365870        1.34568287409237
O           -3.33521133295006        0.37726811212915       -1.73265039917033
N           -4.44741308471853       -0.36420803098434        0.18392138438714
H           -5.58615458497519       -0.29640003005207       -2.18624727765660
C           -5.63597155611635        0.45320212077505        0.08809598130709
H           -5.96925831513641        0.56776663281183        1.12486916530121
C           -5.50255666414586        1.83840949037201       -0.56039854427827
C           -6.67720818300328       -0.38529686085864       -0.61970992260543
H           -4.73037261412746        2.39189757176766       -0.02097748925441
H           -5.16927872830975        1.74166589022275       -1.59576503030764
C           -6.81508733852371        2.63213161780152       -0.54157028569782
O           -6.42323279719931       -0.69375308850211       -1.90666240319884
H           -7.60339159984101        2.01441586037937       -0.98671508989372
C           -7.24045896329653        3.00674090924063        0.87595791708607
C           -6.65350279821558        3.89429322976838       -1.38793798449802
H           -6.45003649616017        3.56401465072054        1.37464248440251
H           -8.13100312487736        3.62966274446463        0.84430398707563
H           -7.47123614144035        2.12336881224358        1.46443422705724
H           -6.38928088404177        3.64409068539604       -2.41321297994985
H           -7.58064900810949        4.46175032854946       -1.40437439175502
H           -5.87069449216071        4.52822217017044       -0.97636535843379
N           -7.69621947577840       -0.77453305476107        0.00666724642810
H           -8.84526800659721       -0.56885166617169        1.39705458492876
C           -8.71402954289870       -1.58744841790656       -0.62067506110473
H           -8.91986873525677       -1.26965447853784       -1.65065133057275
C           -8.31769728560242       -3.06785455587958       -0.62850649301538
C           -9.99465597932601       -1.43422090438141        0.21346293288509
H           -8.06752753725577       -3.38950078716999        0.38034627149800
H           -9.15007332290656       -3.66048745786921       -0.99741671153733
H           -7.45348175503716       -3.21562665284087       -1.27132058950411
O           -9.79793536386628       -0.82070094083341        1.37414562226628
O          -11.06223748649281       -1.84721113748885       -0.14450838466638
