42
 energy: -62.486133506380 gnorm: 0.000480619587 xtb: 6.7.1 (edcfbbe)
N           -1.10690606788744       -1.23188295499899       -1.28597376612036
H           -0.19444135072270       -1.61629061956064       -1.07392203253613
H           -0.96303309089608       -0.34393784635044       -1.75965067600318
H           -2.72610294261758       -1.80360192905261       -2.04151491653364
C           -1.88714450731552       -1.02176277827871       -0.06618235043665
H           -1.78662691048471       -1.92812510275961        0.54541424441856
C           -1.46859437684281        0.19120461515544        0.75897889595884
C           -3.35534422173786       -0.93837984257292       -0.47906217755366
H           -1.53860234924090        1.09496655159867        0.15650016929319
H           -2.13322755198399        0.29465015730580        1.60966464177214
H           -0.44531812320162        0.07707162269004        1.11090435707442
O           -3.60034664801010       -1.54200436316197       -1.67877291895647
N           -4.16368576979859       -0.37287430911279        0.27983397383455
H           -5.20991982882918       -2.01903799473099       -1.36650203911251
C           -5.56339960746960       -0.05456737721696        0.23181003915546
H           -5.89876911430405       -0.14098157719398        1.27250204958461
C           -5.55744742016847        1.44804196987936       -0.15592808531684
C           -6.54907543261449       -0.86303340923548       -0.60247234747388
H           -4.77758982683080        1.90678990955546        0.45699211059833
H           -5.24032238238803        1.51538806187393       -1.19990187035610
C           -6.84987608523952        2.24722800716986        0.01858065562336
O           -6.17218011816858       -1.98640638554751       -1.22610991893496
H           -7.57949749057084        1.89263244847409       -0.71142475052595
C           -7.43241164465570        2.10512585472655        1.42118411324560
C           -6.55965805400632        3.71862897049105       -0.27884675728505
H           -6.70194716791365        2.41022887122582        2.16824837321495
H           -8.31234633947128        2.73552525095173        1.52507395886722
H           -7.72375631540994        1.07729405067997        1.61923364310569
H           -6.14116265415231        3.83687174351868       -1.27574172398746
H           -7.47597424343193        4.30058351567065       -0.22308814569592
H           -5.85120546387211        4.12325700223291        0.44159601900088
N           -7.74787129709554       -0.45870757592142       -0.63713218811886
H           -9.15753082082853        0.67143708351678       -0.14417637033025
C           -8.74925678621547       -1.19924251016303       -1.37485451069055
H           -8.39717388654148       -1.47428159293428       -2.37701310615614
C           -9.17604652392854       -2.47567230689403       -0.63688087188302
C           -9.98908768877218       -0.30849246539064       -1.50080669374667
H           -9.50670855354818       -2.23022307934771        0.37083553856025
H           -9.99357730248853       -2.94681106074418       -1.17533107958249
H           -8.33774057282778       -3.16469932157497       -0.57776843711607
O          -10.01369592695163        0.69246745897579       -0.62648942618861
O          -10.87155152185710       -0.51609130571375       -2.28683273811846
