42
 energy: -62.486133510294 gnorm: 0.000480406548 xtb: 6.7.1 (edcfbbe)
N           -1.25568751746843       -0.72835000838614        0.86114765124432
H           -0.31824613102997       -1.01091112155304        0.60305515270621
H           -1.55108379984449       -1.31922381338435        1.63368333572388
H           -2.28137946289625        0.83635990783232        1.28090826760603
C           -2.17941730816037       -0.88519326714568       -0.26179893733432
H           -1.68861154913087       -0.46782181156751       -1.15045870852335
C           -2.59716953737739       -2.32657240357799       -0.54496189386643
C           -3.38921953420258       -0.00746522317442        0.02606833302740
H           -3.05738424109925       -2.76167337455741        0.33988894139994
H           -3.32583410286913       -2.34067908706869       -1.34805961183125
H           -1.73399358173165       -2.92587116923337       -0.82780892735079
O           -3.18867262568988        0.96004095673814        0.93443622750378
N           -4.46909434529347       -0.21370418396781       -0.58532438572923
H           -6.29012281628827       -0.11094626281202       -2.51287794884519
C           -5.62396072113878        0.62748846227837       -0.32841067729895
H           -5.68966892219738        0.87244612549807        0.73843510141276
C           -5.55099009484648        1.92653615397840       -1.14421039221194
C           -6.81783299558422       -0.22362636191946       -0.69164202847319
H           -4.73855702472532        2.52759241524463       -0.73095891105913
H           -5.28165326184598        1.69101553041667       -2.17953443478014
C           -6.85032776806503        2.73986078991354       -1.12742252837064
O           -7.01658708670088       -0.48244446186601       -1.99655168326539
H           -7.65667789512290        2.13209035472104       -1.55387676183247
C           -7.24800852808055        3.13570464973064        0.29236148549585
C           -6.67696932287968        3.98607172923736       -1.99448241127866
H           -6.42628031679082        3.64792158140053        0.78820889081714
H           -8.10462873034431        3.80514980024307        0.26696545204966
H           -7.52053128320799        2.26192878204920        0.87814740060147
H           -6.40617817523419        3.71733408780734       -3.01351750115804
H           -7.60134076479401        4.55735114898859       -2.02715966395071
H           -5.89448698623025        4.62313607291523       -1.58767105371584
N           -7.50910463102687       -0.73069994420092        0.23077929359673
H           -8.01720872192278       -0.76546418040253        1.96248080177402
C           -8.62032406482586       -1.61577143269957       -0.04366405861860
H           -9.26183621406793       -1.22730980787632       -0.84451410754824
C           -8.14623254070805       -3.02146605231122       -0.42876379461238
C           -9.44801018058783       -1.71748407442292        1.24618262060783
H           -7.46972980882383       -3.40489027696208        0.33234259592358
H           -9.00621621244253       -3.68052668409199       -0.50755312089943
H           -7.62472545661436       -2.98804141894976       -1.38163907779573
O           -8.85934011108342       -1.15673287033468        2.29608884779790
O          -10.51286688259785       -2.26718508338413        1.30061726762042
