42
 energy: -62.486133503061 gnorm: 0.000480094087 xtb: 6.7.1 (edcfbbe)
N           -1.48421075314157       -0.17610647790084       -0.66556278482536
H           -0.61283161749411       -0.69580072918347       -0.62460941289212
H           -1.72459812173239        0.10469733761866        0.27953924907079
H           -3.96729968684127       -0.09282833140121       -2.93874938676656
C           -2.54653477102938       -1.02905164888603       -1.18252760469439
H           -2.33648450798098       -1.19034476346346       -2.25038827021224
C           -2.65757841088043       -2.38948238743440       -0.48269293438601
C           -3.85503888826435       -0.27797451438654       -1.02846868368139
H           -2.88090982290800       -2.23202610525045        0.56863985306045
H           -3.46300367012160       -2.97197000777625       -0.92080700973008
H           -1.72469549804298       -2.94202152400383       -0.58056968687622
O           -4.45311559335122        0.17307771327552       -2.14799516740508
N           -4.28984105228972       -0.11945227485759        0.14045010998365
H           -7.77976837956880        0.69535111565469        1.33326747542360
C           -5.52930639908550        0.54482963627974        0.45107339947281
H           -5.51172500582719        0.67165890796503        1.54362548715103
C           -5.66560184413345        1.92711978966612       -0.22564713291617
C           -6.68986458502846       -0.36250675889326        0.11249095514872
H           -4.69414371452612        2.41717069005219       -0.12155815360785
H           -5.84067056950062        1.76441594739638       -1.28935645508058
C           -6.74803226635594        2.86895129878651        0.31567282140467
O           -7.89075290499740       -0.04219645076629        0.72111086686887
H           -7.73705193659986        2.41745629844514        0.17515058782556
C           -6.54791766453385        3.20927294578845        1.79273903170763
C           -6.72483010692538        4.15746774541761       -0.50798041296212
H           -5.56470089087715        3.64967468824605        1.94299578578819
H           -7.29675163770267        3.92948784656602        2.11572925955846
H           -6.62603726391499        2.33653156092602        2.43922044512077
H           -6.88766327250669        3.94179720629750       -1.56098108183822
H           -7.50443701461454        4.83792151567728       -0.17295125890095
H           -5.76440300659928        4.65726242656624       -0.40399746489284
N           -6.52231305739661       -1.34180725415107       -0.64352801331890
H           -8.92001855937227       -0.38879217936260       -0.73974417496210
C           -7.50166245627980       -2.31200130038977       -1.05440509156417
H           -6.93777784735385       -3.08187851392502       -1.59432259077965
C           -8.27080818203659       -2.97202286994101        0.09822443312956
C           -8.51013774306302       -1.72717150148993       -2.05540643512114
H           -8.89532788658281       -2.25445522769873        0.62579104459618
H           -8.90038034705279       -3.76589129904910       -0.29601263922634
H           -7.56224046315390       -3.39941326417831        0.80429841774759
O           -9.18572668759832       -0.65709921347979       -1.63936997864825
O           -8.69999717746511       -2.21387597950142       -3.13345223538767
