42
 energy: -62.486133515712 gnorm: 0.000479536491 xtb: 6.7.1 (edcfbbe)
N           -1.83761034313430       -1.60179284527156       -0.95172845562657
H           -1.16014072963563       -2.32712965730734       -0.75119100162572
H           -1.32128860170970       -0.76799335332078       -1.21835144393877
H           -3.47635511310319       -1.38287817832958       -1.92486524056738
C           -2.66187859575730       -1.31761964601270        0.22294317829106
H           -2.99282701569820       -2.28181468342187        0.62925508676762
C           -1.96201599645092       -0.52296720594157        1.32148937252901
C           -3.91568185878261       -0.60880940856900       -0.26714774006417
H           -1.59567802551907        0.42220975458099        0.92545076441344
H           -2.67085413356343       -0.30940805418051        2.11377313291428
H           -1.12398234635577       -1.08722314090927        1.72551300516025
O           -4.20291395850871       -0.83100525351279       -1.56985158419868
N           -4.57756585440542        0.10149510631737        0.52731710531153
H           -6.11476625381132        0.17941361225994       -2.23630023041659
C           -5.81505222755824        0.76908421985429        0.16733130538056
H           -6.25065660844497        1.06240073115564        1.12796065102837
C           -5.52791860724090        2.02223883436750       -0.67216057402093
C           -6.79792232646146       -0.18294893108688       -0.48736227782195
H           -4.83495902765652        2.64375582266420       -0.10037418743399
H           -5.00683620284927        1.73229681679114       -1.59097177652813
C           -6.77490394322536        2.84340815749143       -1.02303405084362
O           -6.85936228519030       -0.27986937195730       -1.82574443024573
H           -7.51718893446017        2.19116139610642       -1.49597213579155
C           -7.40687689857283        3.46208767631720        0.22130139680817
C           -6.39525574146531        3.93995984948985       -2.01784334100920
H           -6.68146904649088        4.07590593590390        0.75106656842062
H           -8.24727742858762        4.09186854877501       -0.06109432132414
H           -7.77390510539376        2.69505993710890        0.89767238124725
H           -5.97732546419406        3.51490214083026       -2.92832948510360
H           -7.26967621116985        4.52688867705702       -2.28783316274848
H           -5.65637913871479        4.60802461289329       -1.58012935209540
N           -7.51462020492921       -0.88295387188702        0.27949197763461
H           -8.21884197521644       -1.19636899035414        1.91780232096633
C           -8.44938093508343       -1.85894993083488       -0.23515300197769
H           -9.03317070813222       -1.46172425809572       -1.07513392602853
C           -7.73895359393104       -3.13925432948416       -0.68859806040595
C           -9.40906906625004       -2.21583882049976        0.90919012456097
H           -7.11817068228009       -3.52259691606820        0.11922715894267
H           -8.48143456503317       -3.88649077768525       -0.95424652520829
H           -7.11066082742962       -2.92892581055204       -1.55048902090432
O           -9.03619887375838       -1.72353075395917        2.08406935179323
O          -10.38908194170615       -2.89091551315545        0.75508451520201
