42
 energy: -62.486133517340 gnorm: 0.000479123126 xtb: 6.7.1 (edcfbbe)
N           -1.21887774456181       -0.20482988542256       -1.75817280424990
H           -0.51923993524964       -0.77526463479777       -2.21733626649937
H           -0.73494056945353        0.41868874037782       -1.11768220493615
H           -2.74544799276997        0.85213847463990       -2.20088955399444
C           -2.17283196118881       -1.03133241538440       -1.02179054761645
H           -2.47487378246062       -1.85077959073070       -1.68723146323947
C           -1.62904719232177       -1.61439535280965        0.28099094748833
C           -3.42219659479064       -0.18133809749843       -0.79278685544624
H           -1.33673836201523       -0.81296013705890        0.95654212218084
H           -2.39448635636863       -2.20907576267172        0.76745787272592
H           -0.76334444972594       -2.24285897419275        0.08070917500356
O           -3.55186898427136        0.84257634236459       -1.64431783926200
N           -4.20762498231809       -0.51560145579044        0.12950803342173
H           -5.34868872723429       -2.21295396593921        0.74919547112566
C           -5.48251433815713        0.10283462277538        0.44604192907013
H           -5.51465485881955        0.12159614219155        1.54633465938270
C           -5.76373360989099        1.50602769677214       -0.09259344444091
C           -6.50445317704903       -0.92328727764694       -0.00606830241281
H           -4.87887253582189        2.12371845715372        0.06983403646064
H           -5.93088025254983        1.43686528178853       -1.16698498564758
C           -6.97096663426323        2.17415516861980        0.57864624037531
O           -6.24348527179685       -2.18866175439188        0.37546847697075
H           -7.77061749059605        1.43397342150483        0.67310165330046
C           -6.61710064195048        2.69490558217254        1.97068673151455
C           -7.47306860471336        3.32651504453305       -0.28951570721655
H           -5.83852520842098        3.45251897694041        1.90479414688268
H           -7.49011551575939        3.14357053110436        2.43916256124607
H           -6.26315896830652        1.89564213576463        2.61754747051281
H           -7.78609502191856        2.97019534411271       -1.26775456267464
H           -8.32184260758853        3.81626650235024        0.18220318389703
H           -6.68602917863704        4.06490331164431       -0.42843576675955
N           -7.47892757406494       -0.59170438609315       -0.72731059970701
H           -8.30696720768416        0.64273283321525       -1.75127057148291
C           -8.44308304419152       -1.55121533224638       -1.21292580310149
H           -7.95930840797604       -2.45741034162219       -1.59911746837200
C           -9.44359757266071       -1.95208796845405       -0.12342117350521
C           -9.21441299495464       -0.86933406956118       -2.35367257546282
H           -9.90953440710332       -1.06384281324482        0.29898315824591
H          -10.21263240615103       -2.58480697975657       -0.55743081368926
H           -8.93088483773777       -2.49469469249474        0.66692732023661
O           -8.98368933167593        0.43471214904950       -2.43945737619742
O           -9.96683192856407       -1.45812665833456       -3.07903343832391
