42
 energy: -62.486133506317 gnorm: 0.000480822695 xtb: 6.7.1 (edcfbbe)
N           -1.32733151855199       -0.90467647618560       -0.62454998623744
H           -0.68019293764710       -1.67920491199081       -0.70786622254139
H           -0.91756009949579       -0.23150682381158        0.01736794806210
H           -2.38182575014088        0.21048176237723       -1.75591915827649
C           -2.61890214523784       -1.35695825636297       -0.10642635289151
H           -2.90103626195823       -2.25225173026180       -0.67629240518339
C           -2.63352012722878       -1.68464272529355        1.38347842169824
C           -3.64479448409565       -0.28392297375267       -0.45828197134062
H           -2.32219947350064       -0.81599493626495        1.96092854225564
H           -3.64246935356062       -1.94904181717627        1.68176857576469
H           -1.96177105350480       -2.51371283968213        1.59746786911105
O           -3.29963670048631        0.46650603467236       -1.52768794626315
N           -4.70018653960688       -0.21777301498105        0.21404619593057
H           -6.38495388642920        0.43854749420620       -2.35514083465769
C           -5.80197856510924        0.69712104482290        0.01187428410627
H           -6.13778437743500        0.92979810738986        1.02948974183355
C           -5.53611872167599        2.00385658859394       -0.74312585383325
C           -6.88768086593912       -0.16482229666170       -0.60699216473948
H           -4.73407265238906        2.53171327836346       -0.22252658571332
H           -5.16553756889075        1.80127803112868       -1.75162610542073
C           -6.77346126143447        2.90995684783792       -0.82257482617362
O           -7.00725196275012       -0.17954551581636       -1.94902402707466
H           -7.63375483173558        2.31661313266662       -1.15431617100723
C           -7.11315489491547        3.52065514295330        0.53497731888853
C           -6.52964495978355        4.01951608795490       -1.84525646596178
H           -6.27028726848919        4.09460966366687        0.91441979183906
H           -7.96659089495807        4.18819044943859        0.44139718436246
H           -7.36589510535689        2.75261540933427        1.26097950817207
H           -6.33720477032022        3.60699356581927       -2.83383215826924
H           -7.39709978142694        4.67154479287952       -1.91297159305316
H           -5.67132736472383        4.62053930353049       -1.55225635416534
N           -7.56028036400860       -0.91104745049846        0.15043985611428
H           -8.09831635698676       -1.37695105484928        1.81429848939406
C           -8.54182318288729       -1.84239380427501       -0.35654637791478
H           -9.19495329009886       -1.38037891543752       -1.10751228170422
C           -7.88377346413261       -3.08374516443872       -0.96957135999000
C           -9.39690930645319       -2.29032795163709        0.83872684849619
H           -7.19116675251547       -3.52435848188454       -0.25529974256513
H           -8.65192751831427       -3.81027614951337       -1.21928643965035
H           -7.33835766932647       -2.80892188439422       -1.86870447481838
O           -8.90443678722368       -1.91077803221507        2.01078974904531
O          -10.39902038215880       -2.93932933257971        0.72007273564505
