42
 energy: -62.486133523097 gnorm: 0.000478125515 xtb: 6.7.1 (edcfbbe)
N           -1.24294516399606       -1.36269560162615       -1.04515879529038
H           -0.93228555939714       -2.04239511345163       -1.72953773665760
H           -0.94332613551234       -1.69053070115071       -0.13074011877292
H           -1.23945140537887        0.49755996955859       -0.69620399316086
C           -2.70057892975922       -1.22618081031687       -1.06596033325013
H           -3.01326559803387       -1.15532105959414       -2.11422318582311
C           -3.44990133714055       -2.37394147479316       -0.39660459017231
C           -3.06290183732984        0.12421269996175       -0.41993063374422
H           -3.15152000425953       -2.46121543880005        0.64741827672872
H           -4.51395075506668       -2.16696202076902       -0.44477846332436
H           -3.24219863760063       -3.31504633777939       -0.90307485881676
O           -2.01353254515449        0.97910955808740       -0.33955236782520
N           -4.17786034348225        0.45423407010364       -0.02588232555175
H           -7.55628776118141        0.55204411432928        1.54665330517119
C           -5.44890218583260        0.81184693589786        0.38404375548958
H           -5.42243900147318        0.96795735090325        1.47511871698212
C           -5.82224685796664        2.14316173624299       -0.32441884433909
C           -6.52516580025052       -0.22700423814291        0.08637770109142
H           -4.97622706654959        2.81718219449357       -0.17867428969589
H           -5.88638727970789        1.91879969059094       -1.39082300867918
C           -7.10786369491285        2.84561114833930        0.12346601856955
O           -7.65053169595813       -0.15058543846576        0.89138358022825
H           -7.95944893696789        2.16348649415226        0.02324581038263
C           -7.01746725488166        3.34094357243928        1.56710328021880
C           -7.36811818562986        4.03210923621192       -0.80500704901126
H           -6.19552523286641        4.04647398041860        1.66626437581703
H           -7.93768221224070        3.84767886220379        1.84977377899920
H           -6.84910344941228        2.53259333904085        2.27731323987680
H           -7.47516901972881        3.69624512345744       -1.83333680714710
H           -8.28103037031096        4.54831292789059       -0.51701326732403
H           -6.54292072803190        4.73903450698954       -0.75786680459149
N           -6.36749994604165       -1.07077411238837       -0.82051429347752
H           -8.86044486779813       -0.47220743001633       -0.41492958343199
C           -7.28399735141155       -2.10912445380308       -1.22244420647245
H           -6.73306341132432       -2.71676634983349       -1.95012715270536
C           -7.76590268158972       -3.01191267336806       -0.07847004219579
C           -8.50906923891853       -1.55195521297927       -1.96444712870416
H           -8.35180457864523       -2.45607850659811        0.65012229113548
H           -8.37688784155264       -3.81406351202778       -0.48486650447404
H           -6.90590737847081       -3.44527146375103        0.42784555144246
O           -9.23313732295671       -0.65307415191689       -1.29866068525931
O           -8.81223682166572       -1.91733511604969       -3.06386064551167
