42
 energy: -62.486133519575 gnorm: 0.000479059966 xtb: 6.7.1 (edcfbbe)
N           -2.17260128541700       -0.98856958933287       -2.36780699304943
H           -1.54845963344174       -1.69557977510922       -2.73574610948482
H           -1.67338759315286       -0.10340149227714       -2.37107867003078
H           -3.97388072009957       -0.40004770376298       -2.61310795619595
C           -2.60064120396588       -1.31466772253928       -1.00977296289455
H           -2.87884166717492       -2.37583125748084       -1.00015879301938
C           -1.55075944367237       -1.05938085480521        0.06843283892430
C           -3.88133496052832       -0.53162584560709       -0.74256143856347
H           -1.25250807794156       -0.01327335959331        0.05942530308103
H           -1.97169511191755       -1.28588984394941        1.04173061664928
H           -0.67289185944562       -1.68024684675126       -0.09988428343236
O           -4.52486687214688       -0.12909703525801       -1.84798688368803
N           -4.25901673528360       -0.37190393310789        0.44712293366640
H           -6.16222708747000       -1.43520053589870        2.32256567452259
C           -5.48369130086506        0.32615253513831        0.80399268968790
H           -5.38041790636648        0.53132643437847        1.87961202214162
C           -5.75373412845518        1.63768253719401        0.06434297495689
C           -6.58417855076305       -0.69260371004585        0.60524036514024
H           -4.83619118362169        2.23012775116757        0.06669699593732
H           -6.01097727351175        1.40309453713587       -0.96649757071460
C           -6.89436925790244        2.44304276068747        0.69739352954895
O           -6.80095074953522       -1.56903263792720        1.61149342005691
H           -7.70868391475864        1.75192935409262        0.94108471321090
C           -6.44724935433534        3.15376148015692        1.97335610098543
C           -7.41837990144971        3.46647501971224       -0.30796220975387
H           -5.64854012146385        3.85858748273910        1.75101686584076
H           -7.27701806984414        3.70516327631235        2.40985094595883
H           -6.08351262633791        2.44964712661774        2.71765385184317
H           -7.80072460087939        2.96850941444063       -1.19535255142860
H           -8.22181616705065        4.05515112499099        0.12897022852773
H           -6.62157994682178        4.14360410430781       -0.60862468526782
N           -7.17940280148683       -0.73912481760692       -0.50070942333840
H           -6.65098670510296       -0.73664756898233       -2.28031388111500
C           -8.14816498175710       -1.74964104265278       -0.83540023932663
H           -8.03991674742191       -2.66210998693705       -0.23311912856423
C           -9.57022682047864       -1.20502903699471       -0.67158187377424
C           -7.93101025986950       -2.11778357700943       -2.31207545395974
H           -9.66785121705161       -0.26341348041510       -1.20748644840314
H          -10.27793141663482       -1.92319293107287       -1.07597322284320
H           -9.78591566106715       -1.03690850099816        0.38082113352552
O           -7.02387559965530       -1.37535595483798       -2.93343247287563
O           -8.53578172284561       -3.00072165365168       -2.85523469080543
