42
 energy: -62.486133523381 gnorm: 0.000478804785 xtb: 6.7.1 (edcfbbe)
N           -0.93427681199195       -0.86068183810883        0.58708543877776
H           -0.66929249254080       -0.01275092530109        1.07771046218870
H           -0.08726626772057       -1.30649492713829        0.25488283226777
H           -2.52079198459332       -1.40947752763383        1.48679837869202
C           -1.83341099152622       -0.55746399535096       -0.52563587714363
H           -1.58012949379957        0.36306522051486       -1.06756308947521
C           -1.85668709638456       -1.72726049768023       -1.51093877540000
C           -3.22616469435691       -0.40204334790665        0.05728959922195
H           -2.10799309518478       -2.65123994431484       -0.99393565035764
H           -2.59825086855726       -1.53896775321503       -2.28148067410361
H           -0.88285248039360       -1.84438425694327       -1.98137048243585
O           -3.40906632759015       -1.08510444699157        1.22392247228283
N           -4.07944004802895        0.28475734490127       -0.54419989256099
H           -4.91395346745912       -1.82831888052541        0.51747225923893
C           -5.44621434553220        0.50697119763487       -0.12907077504871
H           -5.44871500658047        0.80068431772945        0.93565623719404
C           -6.01290060598075        1.65369899588037       -0.97560134302593
C           -6.32356893423190       -0.73247322898127       -0.19086136777318
H           -5.17871687039656        2.30276908580733       -1.24544628422422
H           -6.41720990646023        1.23218680185691       -1.89564982648290
C           -7.09100730986785        2.47783581576211       -0.26142876431752
O           -5.79725306304256       -1.92607841295478        0.12795658095515
H           -7.76382334235668        1.79038886431074        0.25913995178797
C           -6.47107646447367        3.42702951399112        0.76286758037763
C           -7.89777343438921        3.27769656622041       -1.28213400517381
H           -5.82328457393661        4.14689181043229        0.26669798593374
H           -7.24904913477313        3.97399847052235        1.29082339143811
H           -5.87990311861647        2.88722239459721        1.49888525960889
H           -8.39837013865614        2.61986166885725       -1.98761038310992
H           -8.65432290266419        3.87826259241275       -0.78256515346414
H           -7.24430774614178        3.94564168341297       -1.83895000149819
N           -7.54529014405806       -0.58241544116752       -0.46511975211944
H           -8.80770557526511        0.37420002948625       -1.34605872392731
C           -8.46398972377200       -1.69656239913060       -0.50076630625327
H           -7.99612296263251       -2.61262233800638       -0.88186028459171
C           -9.04777159464068       -1.97602651073752        0.88881320920032
C           -9.61775757606229       -1.30158111453805       -1.43538651531511
H           -9.48933018506758       -1.06853270267138        1.29589648986308
H           -9.81495234684327       -2.74069476567101        0.80837353166917
H           -8.26322157731310       -2.31990208954516        1.55865863194541
O           -9.61138945562299       -0.01619058242842       -1.76608365301849
O          -10.45158710077814       -2.07792029388542       -1.81027765623086
