42
 energy: -62.486133512800 gnorm: 0.000479716921 xtb: 6.7.1 (edcfbbe)
N           -1.41660067112126       -1.57739879475990        0.95267479879623
H           -1.12815648862352       -0.96824820788928        1.71088880326870
H           -0.61073266323059       -2.11784907948278        0.66195942388367
H           -3.26405019632372       -1.85609062674345        1.42682357901698
C           -1.95206374975306       -0.79963901301028       -0.16254712776542
H           -1.41282517134987        0.13951813347396       -0.34865894185504
C           -1.93790704604555       -1.63938783970620       -1.44122511962828
C           -3.39377867803126       -0.46037255121343        0.18042683159216
H           -2.50223902072775       -2.55868523962771       -1.29562163061397
H           -2.37593146483542       -1.07086035457205       -2.25666470355695
H           -0.91611139151621       -1.89848602329173       -1.71087086939286
O           -3.96007359243854       -1.24344131654134        1.11006062344148
N           -3.96525150869502        0.49031729572287       -0.41968687205470
H           -4.91574629531106       -1.14469563664913       -1.53093855880873
C           -5.35838439692608        0.79101179412384       -0.15562944664844
H           -5.48638228468584        1.08489975561144        0.89182450021067
C           -5.72765164549114        1.96380480887836       -1.08347413047680
C           -6.26358014237648       -0.39563697180413       -0.41232215545437
H           -4.98890549027377        2.74699773850899       -0.90489306372801
H           -5.60003236187939        1.62501573787378       -2.11448249730409
C           -7.13516643635834        2.53813567401823       -0.91281513042308
O           -5.80703122741530       -1.36848183456537       -1.22472434858810
H           -7.86296672140371        1.73844478218951       -1.07682358836816
C           -7.35072704708786        3.11551986901111        0.48344632723856
C           -7.36709989575800        3.62169128454547       -1.96531724980750
H           -6.62378001750922        3.89978054796721        0.68548353822230
H           -8.34732445070833        3.54279679136058        0.56054161938611
H           -7.25374897301422        2.34688275229276        1.24511288280104
H           -7.24015793604140        3.22107566616775       -2.96836827648415
H           -8.37537873974424        4.01916027662489       -1.88182395567808
H           -6.66278234268804        4.44017218880554       -1.83095052169448
N           -7.44156824680731       -0.36831187337371        0.03378625583444
H           -8.82941920719467        0.55123948234009        0.77862257344068
C           -8.38398606017881       -1.42718371308344       -0.24754693032077
H           -8.35177717272808       -1.73526424336004       -1.30083782373095
C           -8.13094783715967       -2.65557954765921        0.63368925137455
C           -9.78557476088233       -0.88544573875916        0.06812922780951
H           -8.12127926602123       -2.36370901794820        1.68191165025176
H           -8.92139520293840       -3.38309055227930        0.47207042098990
H           -7.17087240176181       -3.09866014369252        0.38166619128232
O           -9.77434610305128        0.28197930316823        0.69980233381614
O          -10.79245695149842       -1.47395139136403       -0.21376277017499
