42
 energy: -62.486133514074 gnorm: 0.000479495789 xtb: 6.7.1 (edcfbbe)
N           -0.82653347648868       -0.31250702503496        0.42981606746707
H            0.11149461621908       -0.44509047121791        0.07183915932247
H           -0.95752356185886       -0.96764640249323        1.19565683009918
H           -2.01812496047191        1.13864412596739        0.95489734967004
C           -1.82486859936659       -0.55658393683751       -0.60961282857331
H           -1.51225260984856        0.01155274308009       -1.49620128274395
C           -2.00552153392923       -2.02442102593116       -0.99274488089775
C           -3.12204317034585        0.07253860315354       -0.12526020884922
H           -2.38095303474920       -2.59256010987874       -0.14432647763894
H           -2.71521099711465       -2.11002549274980       -1.80884580276284
H           -1.05438459136470       -2.44843807635344       -1.30907625884118
O           -2.96974869403804        1.08894143951162        0.73428289506223
N           -4.22909099273720       -0.35697649862998       -0.54300870324913
H           -5.17518672459452       -1.76985485565196       -1.17903094775324
C           -5.48092773213586        0.24443715102896       -0.12757806922129
H           -5.48052045174780        0.46426402928147        0.94574373342284
C           -5.67239172245877        1.55864764313090       -0.91286930204456
C           -6.56150488331377       -0.77550289612101       -0.43795264784774
H           -4.83058294594477        2.20474791310159       -0.65292807401775
H           -5.59683555662954        1.32066460645331       -1.97730917339150
C           -6.97630204846743        2.31735614708708       -0.66163201449175
O           -6.14281772030711       -1.88416193365404       -1.05770961622771
H           -7.81142475734040        1.68801026471120       -0.97788570329602
C           -7.15404400225347        2.67262983106747        0.81160478645667
C           -6.98403655308441        3.58746504453194       -1.51168023488016
H           -6.30700183450396        3.25720270289350        1.16558409278195
H           -8.05830951777101        3.26057942072218        0.94762718349827
H           -7.23697647535650        1.77666484891142        1.42051585365741
H           -6.86715385734455        3.34800210528006       -2.56614383928467
H           -7.92371035131519        4.11886443762769       -1.38470277485237
H           -6.17228196898040        4.24988384272381       -1.21729783234088
N           -7.76655102076862       -0.52765648950380       -0.15676591255892
H           -9.06705924248644        0.57349456799144        0.50139199489818
C           -8.82207227610358       -1.46499066472800       -0.47586270544887
H           -8.77154697673415       -1.78403596060408       -1.52482197317375
C           -8.78810717411639       -2.71098831468008        0.41674305617887
C          -10.15777003279847       -0.74453491573159       -0.24400117876607
H           -8.78956076261774       -2.41692731911673        1.46466059130160
H           -9.66611530133775       -3.31854577182130        0.21625238360401
H           -7.89179180172599       -3.28992500615726        0.21049017509106
O          -10.03307951767720        0.42101644983748        0.37923066492554
O          -11.21576644416841       -1.20626062036814       -0.57215338137645
