42
 energy: -62.486132281637 gnorm: 0.000624584760 xtb: 6.7.1 (edcfbbe)
N           -2.10963006866400       -2.03823148948990        1.16805326511846
H           -2.02373320825362       -1.62126135559996        2.08934738884299
H           -1.25851621001140       -2.55437903895057        0.97844225744946
H           -4.03208410766907       -2.28328604579828        1.03143643943457
C           -2.33127523141500       -1.01003985838735        0.15449744421470
H           -1.71072503825624       -0.11245758484934        0.28290939860112
C           -2.08209530395710       -1.59596669875805       -1.23620152994276
C           -3.79365082997938       -0.59988300510972        0.24711593081992
H           -2.71361053510815       -2.46799761385329       -1.39355760233089
H           -2.30871515607876       -0.85013323266905       -1.99210629516149
H           -1.04131786002194       -1.89532890338582       -1.34039604529454
O           -4.60549095144487       -1.54387720809239        0.74119205347260
N           -4.12317987638067        0.54176376103680       -0.16072082445632
H           -5.82379312003306       -0.06317598061236       -2.28307415382575
C           -5.48357929953085        1.04250106168338       -0.16637657496492
H           -5.70952924042830        1.39791472951527        0.84565155515452
C           -5.53952934210436        2.22114793999420       -1.14931154264877
C           -6.50638465933064       -0.01966463990149       -0.49740629120118
H           -4.87390057777774        2.99620012245438       -0.76751514554276
H           -5.12976158158626        1.90400563055133       -2.11341288152113
C           -6.94423509396073        2.79853493870056       -1.35679654052347
O           -6.50094806164257       -0.50718721341542       -1.75673249364342
H           -7.59875689135678        2.01372734052926       -1.75361343525948
C           -7.54617910220523        3.30389013804362       -0.04804554694068
C           -6.87893361717874        3.93195754440828       -2.37960978288463
H           -6.87907088330740        4.02109077092530        0.42520869448782
H           -8.49685630787401        3.79553586451586       -0.24055404705051
H           -7.72582464403460        2.48269961779686        0.64052798162956
H           -6.46370375812047        3.58238919167599       -3.32258767986394
H           -7.87255301213132        4.32927314326947       -2.57129305928926
H           -6.25239165682919        4.73970002642205       -2.00762960868922
N           -7.27877745636641       -0.43713053784965        0.40371919428530
H           -7.92622711118109       -0.33686860953687        2.08146607909457
C           -8.26033892958483       -1.47001441635140        0.16059631207143
H           -8.84313955808845       -1.26793882372160       -0.74698172327204
C           -7.62177386232913       -2.85802954661442        0.04050598142965
C           -9.20812026041871       -1.48020844838301        1.36882872670303
H           -6.98968633954416       -3.04585748190107        0.90549432160909
H           -8.40459739075034       -3.60987056293033       -0.00612313455802
H           -7.01381074961284       -2.90839961622771       -0.85865126319734
O           -8.76696038230733       -0.75317578059346        2.38828939460060
O          -10.23280396262146       -2.10399396326444        1.39434997910084
