42
 energy: -62.486133506992 gnorm: 0.000480751433 xtb: 6.7.1 (edcfbbe)
N           -2.34273195972580       -1.02917401848987       -0.45927900958796
H           -2.15836942929218       -0.19973091600404       -1.01384412051604
H           -2.09592018803188       -1.84069711638498       -1.01457634324593
H           -2.21813269409746       -0.50420639305011        1.51806462683873
C           -3.74604244281813       -1.08856592908738       -0.04944012580687
H           -4.45107108046680       -0.96097297175886       -0.88526416131840
C           -3.99207086475216       -2.43157826481939        0.63792397654412
C           -3.92946174501434        0.03348277547720        0.97590401486281
H           -3.31491083781840       -2.55102256264128        1.48085296670136
H           -5.01220663826976       -2.48419986865054        1.00259701619101
H           -3.81764533390575       -3.24883908013063       -0.06013555251296
O           -2.92038176333531        0.08367342529928        1.85361227892440
N           -4.82628154085499        0.90670466054215        1.09327894650196
H           -7.02337268080074        0.91144001092681       -1.97243862462623
C           -5.96291664145726        1.15766686610225        0.25676786536812
H           -6.68786282311488        1.63836994792065        0.93248400703780
C           -5.54571004224288        2.19692174091452       -0.80753781016977
C           -6.70578899143480       -0.03693820971613       -0.32320410025155
H           -4.70578377728381        2.75396395577143       -0.38789068615827
H           -5.16480790499160        1.68143867024916       -1.69628892455897
C           -6.65129678784490        3.19929440297416       -1.18322246101378
O           -7.21328875569683        0.05382963775800       -1.57133357734593
H           -7.62456468197158        2.69285555819203       -1.22291286683748
C           -6.74912094280497        4.30116848941118       -0.13035232237421
C           -6.36642838213370        3.80978729834894       -2.55540878836985
H           -5.83400714972538        4.88841618317631       -0.11369968760108
H           -7.58070989017437        4.96585070454910       -0.35225314511911
H           -6.90090579241535        3.88016904938136        0.86008366563950
H           -6.34782188112591        3.05003219217362       -3.33568021493178
H           -7.13169220316243        4.53812198117210       -2.81210346298295
H           -5.40340146448807        4.31541255934531       -2.54847519997885
N           -6.90116861462049       -1.04836234858024        0.40329457076383
H           -6.97672633805317       -1.72979901580267        2.09603303168117
C           -7.73042799573642       -2.15404038610362       -0.02701839182404
H           -8.72014080712217       -1.78067353917067       -0.32753697923974
C           -7.16553848207121       -2.97467621813115       -1.18916488036203
C           -7.93913195065455       -3.06314852598791        1.19566415366221
H           -6.16388701205544       -3.32485529107330       -0.95547131353169
H           -7.80898034302822       -3.83559472895433       -1.34717891401157
H           -7.13502991428012       -2.37556288192895       -2.09512597171831
O           -7.40976189507839       -2.58711945581541        2.31669973649695
O           -8.53045431919481       -4.10496978949524        1.13825779959989
