42
 energy: -62.486133507654 gnorm: 0.000481043069 xtb: 6.7.1 (edcfbbe)
N           -2.63662169161156       -0.24766831784168       -0.41318976514799
H           -2.67466809974856        0.60684215785147       -0.95910445542502
H           -2.17461030182568       -0.95659734740156       -0.97183630596669
H           -2.75906291189479        0.25397626564625        1.65231418308628
C           -3.98022501379619       -0.68877225675107       -0.02549127205866
H           -4.66965546652037       -0.79506073742776       -0.87621258096096
C           -3.84401744251451       -2.02928097551727        0.69426075440930
C           -4.48230214312052        0.40614971184181        0.92049566931940
H           -3.20397990515600       -1.93192981563112        1.56825069615180
H           -4.81447851273118       -2.39008716508090        1.01065745557297
H           -3.39715233110638       -2.76261044290384        0.02472017519293
O           -3.59797260684822        0.68848875556171        1.88560130164880
N           -5.48440985627162        1.16404400823969        0.84795362116784
H           -8.52325228794038        0.58644845257569       -1.42898334258803
C           -6.61185042414672        1.10228710713419       -0.02683081665922
H           -7.39321936443900        1.70254315197725        0.46874885450070
C           -6.26337983537521        1.78814212030994       -1.37605893187401
C           -7.24268134143596       -0.25701232379033       -0.25597221565559
H           -5.24902940190150        1.49574113263997       -1.65577331835698
H           -6.92823896910534        1.43686728646420       -2.17077663180032
C           -6.34433316752620        3.31814594570423       -1.31740749852607
O           -8.28771024729962       -0.29639970061920       -1.11656628977772
H           -7.31293307687556        3.59696008637453       -0.88537339550304
C           -5.23801879133369        3.89835072856698       -0.44216380271352
C           -6.26432352319597        3.89664203299415       -2.72998545142611
H           -4.26610109961776        3.72405549414935       -0.89972602349015
H           -5.37263721776076        4.97071519915960       -0.32429702322459
H           -5.24306275550210        3.42901121310592        0.53764257544426
H           -7.08531780104546        3.53977255152712       -3.34929984025013
H           -6.31203327574923        4.98195862486472       -2.69458434219544
H           -5.32762295090034        3.61228348771291       -3.20497468473794
N           -6.90158453055586       -1.26064297756836        0.42204908520006
H           -6.57871986911573       -1.71408313212372        2.21530072652037
C           -7.60980749266630       -2.51614090285326        0.29889689521949
H           -8.68905884237628       -2.34969964166236        0.16549250395595
C           -7.10680948898341       -3.35656783388385       -0.87658650053445
C           -7.43064267820154       -3.28657396778711        1.61481206292670
H           -6.02843186745809       -3.48168347995703       -0.81686915855219
H           -7.57866880040416       -4.33404802735680       -0.83615703319095
H           -7.35835473989338       -2.87096561904891       -1.81619425945575
O           -6.82433328057075       -2.59390245661121        2.57531241842300
O           -7.81487798081234       -4.41177042015358        1.76677770287042
