42
 energy: -62.486133515283 gnorm: 0.000479275194 xtb: 6.7.1 (edcfbbe)
N           -1.11528354444381       -0.82240785313751        0.86000230588956
H           -0.14980585331956       -1.00577000332158        0.61568426947064
H           -1.43366542386096       -1.58932203593455        1.44608802195851
H           -2.24945879886174        0.58034915516461        1.54774873134985
C           -1.95106917962513       -0.73259375787940       -0.33557726614458
H           -1.43488416135199       -0.07188776044312       -1.04443485686068
C           -2.23791923967746       -2.07180254479926       -1.01281330450605
C           -3.23512434458374       -0.02399324498576        0.07213567799526
H           -2.77994298606388       -2.72638382159557       -0.33364642268504
H           -2.84752304008334       -1.91454999532921       -1.89594821459238
H           -1.30748182999484       -2.55516967144906       -1.30448558291199
O           -3.14547938810777        0.72237914103094        1.18126974565369
N           -4.26978845051566       -0.15258160325583       -0.63270922718892
H           -5.47734499018075       -0.91310020338525       -2.08378863974779
C           -5.50674188997393        0.51302420204351       -0.27575913939496
H           -5.56676648666291        0.72368218864921        0.79661481892327
C           -5.63580456599865        1.82172317440481       -1.07452816540731
C           -6.60353743521128       -0.44850970005738       -0.66720534653958
H           -4.81545986068343        2.47784671774455       -0.77533837640597
H           -5.50635240070614        1.58843842855741       -2.13523972478199
C           -6.97189605661388        2.54424899844845       -0.87561796837098
O           -6.39430263678947       -1.10324886075372       -1.81873114759771
H           -7.78454276279911        1.84467338470116       -1.09757862201626
C           -7.13822555814443        3.04135092822446        0.55767806599786
C           -7.06219128786496        3.71733514767010       -1.85066372478560
H           -6.32485537110874        3.71423978391187        0.82194901574037
H           -8.07715147651004        3.57983869116733        0.65945737284047
H           -7.14764373087244        2.21314944841530        1.26030798678991
H           -6.98507715546111        3.37357480542286       -2.87981730508111
H           -8.01161455774132        4.23373338550741       -1.73394679993494
H           -6.25979206124510        4.42831784372936       -1.66418496318093
N           -7.59901612918700       -0.61717829110627        0.08610316726574
H           -8.72022102854075        0.08090655015645        1.32457768562410
C           -8.66451296063008       -1.53159267666091       -0.26524289237170
H           -8.89328590892617       -1.50414034874413       -1.33824211750253
C           -8.31553956064159       -2.97066550519318        0.12832068771707
C           -9.91424945544804       -1.09858888892085        0.51532081618819
H           -8.04279593022710       -3.01104142183773        1.18093864033102
H           -9.17836865662454       -3.60840160676797       -0.04157131871206
H           -7.47900180856098       -3.32461787040003       -0.46919960936897
O           -9.67660748559026       -0.14541571730178        1.40837671045679
O          -10.99586581066060       -1.58787442412149        0.34263201011477
