42
 energy: -62.486133517788 gnorm: 0.000479015125 xtb: 6.7.1 (edcfbbe)
N           -2.25952395769985       -1.31338079056577        1.76061009829268
H           -2.06919927993849       -0.57457037695018        2.42898009990466
H           -1.40576449116923       -1.84039189398602        1.62194187084595
H           -4.11471794285162       -1.71024978249397        2.03183708295983
C           -2.74447530664269       -0.76063271057121        0.49838226846074
H           -2.20820971637868        0.13852762952238        0.16611603764531
C           -2.66469493014706       -1.83014911362261       -0.59213558516426
C           -4.21458996788436       -0.40889333815597        0.68953096331250
H           -3.20062855068357       -2.72304312868761       -0.27764389947707
H           -3.11221892724360       -1.45333307200499       -1.50680155582123
H           -1.62799460896201       -2.09481398594508       -0.78974721831085
O           -4.82192453508403       -1.16515113138655        1.62056918312259
N           -4.67308387272649        0.55877317211716        0.04112362765575
H           -8.28778715493276        1.42190741717421       -0.78462491337346
C           -6.02558473556996        1.01327639200305       -0.12288725642029
H           -6.25961544913327        1.66534680503793        0.73707491353728
C           -6.04063269439569        1.86953882427133       -1.41532515050367
C           -7.15023749892547       -0.00511475567520       -0.14571136720450
H           -5.01322953611530        1.89681617193378       -1.77960584756848
H           -6.63737404830474        1.37246757752873       -2.18460191822319
C           -6.52986686141337        3.31190601145412       -1.22172488591277
O           -8.34780608581983        0.48450289556381       -0.56393910956174
H           -7.45027655687946        3.31860719760662       -0.62054788053024
C           -5.47932928861606        4.13992700546512       -0.48584317457547
C           -6.84333487380217        3.94360624807134       -2.57695326639176
H           -4.57672578362875        4.21613835384934       -1.08708014242423
H           -5.85071689421886        5.14356147274518       -0.29137468741646
H           -5.21488347674862        3.68031199584984        0.46290973109508
H           -7.63043381928606        3.39620567512243       -3.09197295780449
H           -7.17043629796799        4.97298171150368       -2.45100703789142
H           -5.95657245048946        3.94049319715216       -3.20635425306427
N           -7.02604050350876       -1.19141392787980        0.24480997534169
H           -6.15657261684370       -2.44890838446163        1.35527755493766
C           -8.14384799771262       -2.10753567645536        0.20341033418616
H           -9.05023142592803       -1.65276661305766        0.62626988950973
C           -8.45172661004544       -2.57036778116096       -1.22488449031945
C           -7.78959131620341       -3.33937518810921        1.04789496773010
H           -7.54603949541273       -2.95127471932743       -1.69276948184626
H           -9.19390679344873       -3.36281977883976       -1.18741119629857
H           -8.83573335481190       -1.74167730753747       -1.81392841752090
O           -6.57878193788573       -3.31469363291909        1.57998846773991
O           -8.55184963881254       -4.25636485877580        1.19708416525212
