42
 energy: -62.486133508087 gnorm: 0.000480798200 xtb: 6.7.1 (edcfbbe)
N           -1.82124083044585       -0.45715564431319        0.83493386184125
H           -1.18389008905889       -1.09910948032701        1.29400305975742
H           -2.49824071192720       -0.13168811738063        1.51711767983200
H           -3.34174075134821       -0.63238299587197       -2.48313774213240
C           -2.52710588297965       -1.12894702732306       -0.23790897206461
H           -1.83988355446851       -1.19042104783364       -1.09686732697350
C           -3.01337416444210       -2.54776774799555        0.11400613252302
C           -3.74090554886628       -0.31313660409190       -0.61775284262643
H           -3.67930859106269       -2.49657311246286        0.97230522607489
H           -3.55416429102470       -2.99304572084983       -0.71880521156524
H           -2.16389857277164       -3.18307734795164        0.35599714484284
O           -4.02377313554303       -0.20737538637797       -1.94840928247403
N           -4.45239198855355        0.15855130063789        0.30067543491705
H           -6.24959769436403        0.39984660502254       -2.25755131096646
C           -5.66468913335534        0.92305102481568        0.07555654161192
H           -5.98420657255784        1.21565107578419        1.08184864635973
C           -5.45726642926687        2.17938146795710       -0.77615891600566
C           -6.71133348277391       -0.03759299503507       -0.45353985885478
H           -4.69075702243339        2.78159162408434       -0.28256067870586
H           -5.05878044707413        1.90972584662059       -1.75830170271300
C           -6.72836125069816        3.02044139050885       -0.95378249125971
O           -6.89317452028912       -0.14260102606722       -1.78195313808017
H           -7.53230494117483        2.38426369777092       -1.34163057136582
C           -7.19515969648861        3.62609879805387        0.36777974547678
C           -6.45959036043436        4.13022029718811       -1.96983228339427
H           -6.39898033504619        4.21529193151927        0.81755094970071
H           -8.04895079106779        4.27780329933176        0.19786140157009
H           -7.49686685831449        2.85436652911416        1.07064169577240
H           -6.16513214312515        3.71716633517530       -2.93282203953760
H           -7.35149455877574        4.73407630822266       -2.11793164204714
H           -5.66104550940851        4.77937098755237       -1.61660156557100
N           -7.30011141663587       -0.77700949512480        0.38001012023317
H           -7.76933038541557       -1.14724478537977        2.08995418574735
C           -8.23664028597761       -1.79899348547750       -0.03068998483790
H           -8.95420686135092       -1.42022212171348       -0.76936739377167
C           -7.52387212870741       -3.02294601441223       -0.61713244825102
C           -9.00669174574713       -2.23994433021076        1.22363046818006
H           -6.76983802922305       -3.38077710312579        0.08144920796350
H           -8.25121918075061       -3.81064677261337       -0.79178916967670
H           -7.04355015279112       -2.75890449319669       -1.55595033424335
O           -8.51750681114761       -1.73563161120318        2.34910477013705
O           -9.94561439876378       -2.98572971514714        1.18498596093792
