42
 energy: -62.486133522596 gnorm: 0.000478641794 xtb: 6.7.1 (edcfbbe)
N           -1.75846216075694       -1.96477125668641        0.61125973708968
H           -1.36192231566176       -1.47906670884815        1.40869624194144
H           -1.02588451135381       -2.52546678138380        0.19261843018081
H           -3.64443558695658       -2.17552781150605        1.10320571224999
C           -2.30018094086258       -1.01513592670947       -0.35888875493268
H           -1.66761766242342       -0.13198148537387       -0.52461372685820
C           -2.53550167363539       -1.72107778518667       -1.69510812127144
C           -3.64776734720395       -0.55001622824414        0.16252281109384
H           -3.16369205336038       -2.59706709566995       -1.54868814279279
H           -3.03229890083725       -1.04141461576985       -2.38041671689354
H           -1.58914076945182       -2.03632695457172       -2.12973861124817
O           -4.26239365462975       -1.42736068662230        0.97904652408470
N           -4.08787113351364        0.56712192112171       -0.20013153208072
H           -6.15360142813208       -0.09044313092818        2.19100461095003
C           -5.40481558759700        1.07107969657226        0.13690352796536
H           -5.31815601813003        1.60182331071511        1.09708083864209
C           -5.76342471276051        2.07225519091242       -0.96937684345871
C           -6.43745145995597       -0.02529582187011        0.28032780826879
H           -4.97382511688387        2.82484872785040       -0.97912226773599
H           -5.72749764634358        1.53090056658382       -1.91425471604022
C           -7.12718612242421        2.75520960982275       -0.83690122608493
O           -6.76528862783642       -0.43190345226923        1.52831316547868
H           -7.90677263556686        2.00825837268911       -1.02416576216098
C           -7.35271021223954        3.35974692825951        0.54708932649883
C           -7.24808650501714        3.83760370226743       -1.90880449430007
H           -6.52436450016991        4.01157142706517        0.81740715625942
H           -8.26667674776007        3.94964242510008        0.55261311715165
H           -7.45456786795090        2.58720959050895        1.30542740701866
H           -7.08137280439592        3.41599499596014       -2.89683669902418
H           -8.23839510648406        4.28669895284011       -1.88890891358026
H           -6.51260186521661        4.62111778555256       -1.74054041917302
N           -6.97580572108530       -0.50252795733503       -0.75546874392604
H           -8.95233846056611        0.47401001015583       -0.22571029351045
C           -7.90523369652519       -1.61106147645917       -0.66128832479259
H           -8.37495297845853       -1.68864823291839       -1.65429682367076
C           -7.19506903036892       -2.92417221347012       -0.33837751190065
C           -9.04471317326629       -1.35764998031557        0.33272421002763
H           -6.68642071725012       -2.83789149012013        0.61792251173411
H           -7.92700998627851       -3.72402779162082       -0.27512703260305
H           -6.46742949370539       -3.15015450832560       -1.11377538732223
O           -9.49062342216469       -0.09129322150401        0.35063300113813
O           -9.55263091459558       -2.20683665420315        1.00468019408929
