42
 energy: -62.486133508830 gnorm: 0.000480390159 xtb: 6.7.1 (edcfbbe)
N           -0.95282165219834       -0.72951718951701       -0.04701540606630
H           -0.10906286094921       -0.90650658081492       -0.57852841934800
H           -1.02514602146727       -1.45673694096146        0.65959210264998
H           -1.87801704923490        0.71901980619846        0.83852937796951
C           -2.13258319850267       -0.76639748911224       -0.91296467643843
H           -1.90439410015604       -0.16128519316054       -1.79970891697289
C           -2.56569382859798       -2.16183399980472       -1.35418100403291
C           -3.25586985056550       -0.05143673630441       -0.17889790010043
H           -2.72425014120979       -2.79571379847848       -0.48386674953925
H           -3.50370097345494       -2.08494562788977       -1.89325932118329
H           -1.80932742192014       -2.61580799593069       -1.99116920369734
O           -2.84929751821737        0.81432712187283        0.77551790856745
N           -4.44863485271341       -0.28035374838226       -0.49287623808089
H           -7.28968449859822        0.24964877888981        1.80557055408059
C           -5.53016261102111        0.41875650026570        0.14917546159687
H           -5.30036959560697        0.61639192866641        1.20969995319248
C           -5.76073194225995        1.75584018166830       -0.58676947950798
C           -6.77381248033551       -0.42848782424304        0.04624650480636
H           -4.82674673913651        2.32035498543969       -0.54556474938455
H           -5.96224316924413        1.50309838917254       -1.62900775798695
C           -6.89925062642230        2.62036628550369       -0.03568910640841
O           -7.64490921638245       -0.33552047889966        1.12543559523911
H           -7.80785467154092        2.01425766775257        0.04885535880890
C           -6.55486352758071        3.20712994356135        1.33303649086986
C           -7.19196614121143        3.75258578031637       -1.01911016105243
H           -5.67762246518381        3.84578058390857        1.25445558497508
H           -7.38233238710080        3.80659218339364        1.70620973465273
H           -6.33992107687592        2.43522837775488        2.06953451543657
H           -7.49124707016148        3.35177429230362       -1.98418256825174
H           -7.99643284576580        4.38181970711847       -0.64551610399537
H           -6.30821118597161        4.37110939413438       -1.16044783810304
N           -6.97410970268316       -1.13364442780471       -0.96133430675547
H           -9.16373848954124       -0.33433354308080        0.15027808195573
C           -8.09319706028605       -1.99831541032073       -1.22389022367561
H           -7.82801137438017       -2.54645996249640       -2.13531502099365
C           -8.39607232506421       -3.00435773086471       -0.10435960512645
C           -9.37867191881561       -1.21836052591716       -1.54142167742308
H           -8.72082047727341       -2.50414041415347        0.80551272056229
H           -9.17775583610778       -3.68564188566322       -0.43140461521815
H           -7.49742913417005       -3.57571488998709        0.11655044013839
O           -9.77179801006979       -0.34551786333826       -0.61337722373324
O          -10.00742519607707       -1.39507787323932       -2.54540709785133
