42
 energy: -62.486133519448 gnorm: 0.000479261265 xtb: 6.7.1 (edcfbbe)
N           -2.90879279855007       -1.55128247189673        2.05198475499342
H           -1.96896938901725       -1.85946359091368        2.26655059777724
H           -3.49971994111609       -2.37835991413448        2.00297269614505
H           -4.29318862320381       -0.38265657763803        2.59301140266670
C           -2.94908827895139       -0.83516729210207        0.77876839384523
H           -2.13544030726878       -0.09840181377380        0.78675822781562
C           -2.81316975117497       -1.72252592308933       -0.45814253520215
C           -4.25734457158314       -0.05839847126523        0.74816082334137
H           -3.55885911524719       -2.51409338702659       -0.43236167011397
H           -2.97400377025283       -1.12344547800018       -1.34762113029026
H           -1.82339197322688       -2.17286342353205       -0.49704553120427
O           -4.84392982571743        0.10770905217860        1.94552670057083
N           -4.69259947758476        0.40712809355077       -0.33868391343959
H           -8.35885584104880        1.40412018581810       -0.65627964915244
C           -5.97785289016854        1.05962559820056       -0.36984876617009
H           -6.06004546010766        1.78553586660907        0.45709767956074
C           -6.14294887801703        1.77697550709718       -1.72439656642512
C           -7.09204101618042        0.05739444280240       -0.13538295332132
H           -5.18229405672419        1.70755662507491       -2.23549583681581
H           -6.87030697041804        1.24214724843563       -2.34113352297750
C           -6.54519971285878        3.25338378342239       -1.60994628740541
O           -8.35286558351826        0.48564274921712       -0.35764412574185
H           -7.38047552952633        3.35464122363167       -0.90245862031440
C           -5.37900176149017        4.09171894262357       -1.09255968460094
C           -7.00661560001181        3.77645476725310       -2.96902529799354
H           -4.55744771977508        4.06748321632029       -1.80448040184953
H           -5.68453166687332        5.12624311845561       -0.95270593395927
H           -5.01419586115461        3.71036046506283       -0.14217112360873
H           -7.87171898421566        3.22272287392208       -3.32858558985468
H           -7.27834770256694        4.82717097817725       -2.90055318800670
H           -6.20819013083943        3.67577658334989       -3.70032375446843
N           -6.81996068290896       -1.09439550866490        0.28360805153585
H           -5.60595934611014       -2.12436538208591        0.92834351964852
C           -7.79463326372710       -2.11444681100811        0.57768491980410
H           -8.59932091790649       -1.73574826965189        1.22051718340003
C           -8.40965490855121       -2.71510412157969       -0.69014649787913
C           -7.03617091267525       -3.22079123705325        1.33261935767967
H           -7.62066644378497       -3.03923534279577       -1.36618466960413
H           -9.02189583513263       -3.57089687965076       -0.41998580826715
H           -9.02461807279661       -1.97306352651232       -1.19273040322587
O           -5.72488342697728       -3.00314378844121        1.38145139791677
O           -7.56699425053709       -4.18396774657357        1.80977251152827
