42
 energy: -62.486130652133 gnorm: 0.000540767211 xtb: 6.7.1 (edcfbbe)
N           -1.79674341370330       -1.38096383162479       -0.52502705217786
H           -1.24146058243229       -2.22291529478252       -0.43502718233026
H           -1.20467157427036       -0.59295610525810       -0.27721296672068
H           -3.02272098135612       -0.62616677627430       -1.77485367497091
C           -2.96143020866739       -1.42662057811080        0.36014127939289
H           -3.41848477961647       -2.41789701379272        0.24435826082156
C           -2.65430334414298       -1.18868011094778        1.83564521096146
C           -3.97964743131120       -0.42394809110470       -0.17800476552082
H           -2.17298225553012       -0.22137349382765        1.96852361040730
H           -3.58272907338997       -1.18910607937308        2.39628366929847
H           -1.99875456727676       -1.96782661411358        2.21845727357959
O           -3.83621767856771       -0.15968323448573       -1.48849130759434
N           -4.85340177816902        0.01391195459306        0.60788117143540
H           -8.30315943813803        1.59220881626933        0.32984738681417
C           -5.94775408521876        0.89588009143240        0.29186956818771
H           -6.08340305598525        1.50614986764953        1.19682599651273
C           -5.72170421478384        1.81818009203218       -0.92564170252205
C           -7.18523444990073        0.03692457075527        0.13759391151728
H           -4.72156317570608        2.24349436911550       -0.81225057487736
H           -5.71309065736302        1.19887747824167       -1.82341923810265
C           -6.71284443558533        2.97098322736520       -1.13052605846551
O           -8.39222012026651        0.64544496899466        0.16678107130559
H           -7.71083843684160        2.56905477379237       -1.34000675656746
C           -6.78261122143766        3.91042370731957        0.07377747263787
C           -6.28312925466631        3.76438668986264       -2.36592409377376
H           -5.79198910486968        4.29782248777486        0.30220154315701
H           -7.43428738715852        4.75331163672517       -0.14693296352751
H           -7.16560626106935        3.42040573523395        0.96750996752693
H           -6.23630151604776        3.11846747237243       -3.23925054661930
H           -6.98965714716275        4.56592009607268       -2.56937100291000
H           -5.30024415100120        4.20413837942996       -2.21193840311618
N           -7.05197087760637       -1.20976092069992        0.05593704296044
H           -5.99211567770864       -2.57993861878419        0.40600722954197
C           -8.15560904339914       -2.12966634454369       -0.04937061939287
H           -8.95643881402187       -1.89184127761078        0.66347849372631
C           -8.74527427484910       -2.16145883666404       -1.46266144256584
C           -7.59325662980256       -3.52151326289985        0.29000103201031
H           -7.95241394202944       -2.32574114660946       -2.18959981369047
H           -9.46533991920020       -2.97198727401305       -1.53099137180705
H           -9.23837520145713       -1.21776244346901       -1.68176730596299
O           -6.28189893208835       -3.52258012579834        0.49740973414078
O           -8.27431217272010       -4.50762466133242        0.34667287824258
