42
 energy: -62.486132270582 gnorm: 0.000627338288 xtb: 6.7.1 (edcfbbe)
N           -2.21316966335264       -1.10154190497306       -1.52333593265753
H           -2.26848992481199       -0.38808419724497       -2.24287759089913
H           -2.16100185098937       -2.00366054808720       -1.98282271592518
H           -1.37718026718043       -0.23118750221431       -0.02129544884866
C           -3.38460960774439       -1.03681852558063       -0.64460457767764
H           -4.33430243320780       -0.93971452507217       -1.18538313906566
C           -3.40506368315742       -2.28264675815155        0.24365119126703
C           -3.17551431914914        0.16764629683253        0.27521449188120
H           -2.47545824735771       -2.35383048841479        0.80537224236656
H           -4.23265856020688       -2.23123461286858        0.94493437873747
H           -3.51504564514485       -3.18176626190903       -0.35920496829068
O           -1.88399282153463        0.36620345389096        0.56755142470717
N           -4.00199424577028        0.94163670160619        0.81960992594752
H           -6.56322421357356       -0.24604768716205        2.33709631082759
C           -5.41767630545538        1.09533379322155        0.66504399688046
H           -5.74532612893549        1.54105213333919        1.61646256850164
C           -5.60564427932904        2.14102151014626       -0.45563777155633
C           -6.28080894440021       -0.12935040793024        0.42516259908943
H           -4.97942711317906        2.99360348410468       -0.18743656889982
H           -5.21147436512681        1.70712606091140       -1.37576347856020
C           -7.03689773546337        2.62185468601265       -0.71206092831092
O           -6.81655958895631       -0.70739301876180        1.52692229288042
H           -7.59296107920805        1.80975576351999       -1.19510768828368
C           -7.76398357128361        3.02940345326101        0.56690265056709
C           -6.99358667012187        3.79803737820979       -1.68743613658188
H           -7.16338359329977        3.73708008332388        1.13413572597012
H           -8.71089052958423        3.50520178512954        0.32184306210559
H           -7.98096496519251        2.16924568052383        1.19562757635611
H           -6.46335179890917        3.52325217568999       -2.59602856594267
H           -8.00068265038301        4.10659948090598       -1.95763276026479
H           -6.48447476597350        4.64585608107961       -1.23507944605244
N           -6.47861798652111       -0.58200228598026       -0.73572921127113
H           -8.64602111001965        0.27813878594323       -0.67192271343922
C           -7.35561099678941       -1.71720404814315       -0.96405796485972
H           -7.59241715506958       -1.68554016115665       -2.03932176793314
C           -6.71175992134099       -3.06179756676191       -0.63880644168432
C           -8.69355675652341       -1.59227505902695       -0.21981749294038
H           -6.45440605186815       -3.10358696091981        0.41564889798522
H           -7.42443228298144       -3.85418009856696       -0.84837511459676
H           -5.81958540426260       -3.20754479274842       -1.24060400868493
O           -9.22938555831743       -0.36200498562986       -0.23531308247866
O           -9.26059825645449       -2.51062587987540        0.29345798460624
