42
 energy: -62.486133513032 gnorm: 0.000479501761 xtb: 6.7.1 (edcfbbe)
N           -0.75562250880788        0.00084864629084       -0.45169799945400
H            0.05915172304089       -0.26727482177710       -0.99020893240672
H           -0.59467202148885       -0.28537318532363        0.51009854603126
H           -1.92477491986282        1.53395870761406       -0.23220149555221
C           -1.96099180402835       -0.64505484583314       -0.96823651890832
H           -1.97309405706579       -0.48188831419240       -2.05438349788686
C           -2.05768817445471       -2.14312176102489       -0.68767823261056
C           -3.15165637999839        0.12425730561412       -0.40799883496292
H           -2.07203035190615       -2.32640609128353        0.38499264656183
H           -2.97049944981086       -2.53773307624403       -1.12124398376752
H           -1.20614395902189       -2.66253490549260       -1.12274476063698
O           -2.88666913739666        1.40498615279540       -0.10693316463462
N           -4.25131012155587       -0.46785477494603       -0.27634815322332
H           -5.18311660642272       -2.15828777964794        0.32704486864038
C           -5.48725092499375        0.13414777868588        0.18803056739591
H           -5.42429387410688        0.24813270493275        1.28040004473333
C           -5.84328403558161        1.48334813485392       -0.44568978333156
C           -6.53042738733761       -0.93004448458183       -0.10677095900351
H           -4.95656283938992        2.11632402120821       -0.44630140168455
H           -6.13005295029826        1.29635730255018       -1.48178563598291
C           -6.97327333343403        2.22230896166529        0.28182145312476
O           -6.14651551701551       -2.18351909180656        0.19246093673364
H           -7.76366499240602        1.50572958806732        0.52202942483955
C           -6.47342076972646        2.85612193241615        1.57874183698450
C           -7.55039503776972        3.30323505261431       -0.63064113409385
H           -5.69054856378218        3.58188569068964        1.36782647448719
H           -7.28744553662977        3.36768851683346        2.08724297562038
H           -6.07114039906822        2.10847082588283        2.25816134535280
H           -7.96264938229784        2.86950822035880       -1.53833519255487
H           -8.34381155976983        3.84596943683444       -0.12238832332382
H           -6.77486456683159        4.01377807033460       -0.90978472877405
N           -7.62064941106254       -0.63845732539281       -0.66245088091462
H           -8.63135987685527        0.54916758623530       -1.56466538579590
C           -8.60223046110729       -1.64198225910010       -1.00223893045592
H           -8.14029823604429       -2.52369245422902       -1.46509818798025
C           -9.40482841529728       -2.09359450718049        0.22264382532115
C           -9.56852614251033       -0.99850537819206       -2.00884382314076
H           -9.83750455675414       -1.22964222163213        0.72354275591669
H          -10.20402164669479       -2.75648765817905       -0.09676609204224
H           -8.75388464130531       -2.61841589921765        0.91738803582861
O           -9.39590719196447        0.31070011431082       -2.14255519514139
O          -10.40826124259260       -1.61907978389713       -2.59949949983443
