42
 energy: -62.486133510497 gnorm: 0.000480757795 xtb: 6.7.1 (edcfbbe)
N           -2.08493516635060       -1.08166414202349       -1.71203803978386
H           -2.11923354751826       -0.34240322650002       -2.40662756347506
H           -2.01934061728604       -1.96563421457913       -2.20402841594496
H           -1.30102867484218       -0.25947423087089       -0.19742415700461
C           -3.28845417515445       -1.05198810947438       -0.87318014071093
H           -4.21584640008875       -0.90244457339155       -1.43532607595574
C           -3.37344694046294       -2.35940158537429       -0.08367436237259
C           -3.10401503414567        0.09160658747279        0.12661638419463
H           -2.44611226043621       -2.52714673049784        0.46080848003601
H           -4.19317068367178       -2.30878196281262        0.62616188673117
H           -3.54401402515077       -3.19785523574530       -0.75588617742569
O           -1.81386305226309        0.30512266118045        0.42046914185785
N           -3.93241495952568        0.83075479714684        0.71383193190940
H           -7.31271571417019        0.45543759422413        1.96588512206375
C           -5.34563400445426        0.99332524784235        0.68602622241602
H           -5.58027387208998        1.38096056673672        1.68971158394466
C           -5.65501637413031        2.10216510909143       -0.35354876963054
C           -6.30222646344418       -0.15107938638751        0.40747431735975
H           -4.91586703750638        2.89238508590271       -0.21286651944163
H           -5.49955030670315        1.66238319279681       -1.34046510994147
C           -7.06480401710367        2.69822697537177       -0.27513676457962
O           -7.37737001982338       -0.21770345184906        1.27651670543674
H           -7.80295547468705        1.88903599600538       -0.24605961012076
C           -7.23848297523253        3.57952277946013        0.96070233321894
C           -7.33404977778992        3.52097899724132       -1.53421201171131
H           -6.54355043536735        4.41529513862857        0.92264903916841
H           -8.25017015120955        3.97677351817327        1.00050983723120
H           -7.05509059000067        3.03281962668840        1.88320660823627
H           -7.27828349768044        2.89378677167783       -2.42066156703811
H           -8.32607570989542        3.96428464590480       -1.49235187403128
H           -6.60244408875178        4.32055131252495       -1.62872728851618
N           -6.14802691360809       -0.94011889947821       -0.54913336123669
H           -8.66915657742468       -0.58716418866399        0.04045952554662
C           -7.00754139249660       -2.03094761246965       -0.93691714815704
H           -6.45411097232773       -2.57072269248352       -1.71450076593550
C           -7.37329033867659       -3.01038934238681        0.18504535034919
C           -8.29619651965757       -1.51682705700125       -1.59909083774246
H           -7.95209883318197       -2.52828606333049        0.96951908979017
H           -7.95562254830948       -3.82912097244962       -0.23079726861609
H           -6.46488412389061       -3.41508128975482        0.62595413822545
O           -9.06105848531621       -0.73216596554861       -0.84164992439307
O           -8.60376942292715       -1.81097087588210       -2.71824882309574
