42
 energy: -62.486133488872 gnorm: 0.000483659317 xtb: 6.7.1 (edcfbbe)
N           -0.75636515013546       -0.06233433062267       -0.14593180706691
H            0.10020027912681       -0.21278804458335       -0.66505240681967
H           -0.67252329237979       -0.56422833051049        0.73400288326496
H           -1.94288371840475        1.39728941774775        0.35359879047709
C           -1.91415662317403       -0.55258434565200       -0.89131579405682
H           -1.82857066727837       -0.16491093732110       -1.91504672175474
C           -2.04986696781107       -2.07320050744944       -0.94316770860576
C           -3.14551727497155        0.10554921402391       -0.28513642775142
H           -2.12925450813993       -2.47958797516719        0.06360288056747
H           -2.94407075934488       -2.33818204088225       -1.49743572045128
H           -1.18399706051388       -2.51402464838257       -1.43268967204048
O           -2.91193884947984        1.26460035727124        0.34714380310150
N           -4.26811472292189       -0.44575493542858       -0.41698164690229
H           -5.17136497677868       -2.17098721501380        0.18407556524142
C           -5.49535805433267        0.12984873719758        0.10250230560902
H           -5.40276850330991        0.26576205868368        1.19073569152411
C           -5.85468065232452        1.47375582413147       -0.54274453800559
C           -6.54407016754922       -0.93514345893990       -0.15311679353881
H           -4.95486825021954        2.08906827858119       -0.58127385130749
H           -6.17669987053592        1.27490047938026       -1.56588822321068
C           -6.94798621951055        2.24151815047273        0.21019269990721
O           -6.14065119395992       -2.19164961769483        0.11063064742284
H           -7.72952311313142        1.53541193139745        0.50450463830469
C           -6.38787411614129        2.90791681375989        1.46539976339076
C           -7.56130236908470        3.29894871811008       -0.70599569802106
H           -5.61660108373382        3.62777912538077        1.19926722427266
H           -7.17685882411791        3.43196951072409        1.99982392536073
H           -5.95121297610810        2.17716751160865        2.14160128160451
H           -8.01210125997160        2.84187616779033       -1.58340431719264
H           -8.33187913534253        3.85680727616683       -0.17946302750884
H           -6.79771987256110        4.00028877646468       -1.03660798554405
N           -7.66240195623921       -0.64607085642768       -0.65184103904872
H           -8.71953329538966        0.53064162296529       -1.51869493752043
C           -8.64733370358511       -1.65960743194029       -0.95180858560513
H           -8.19548571191152       -2.53342024106623       -1.43919420549172
C           -9.38631776849496       -2.12675362139661        0.30656751510415
C           -9.66536763660352       -1.02600772953940       -1.91213473637019
H           -9.80142084088353       -1.27002990318708        0.83401685473527
H          -10.19426439217921       -2.79447154452841        0.02099697930237
H           -8.69821297261385       -2.65058952210657        0.96539569989911
O           -9.50684833819581        0.28358776300495       -2.06080708173465
O          -10.52842469176619       -1.65438636752261       -2.45939122212096
