42
 energy: -62.486133490413 gnorm: 0.000489424380 xtb: 6.7.1 (edcfbbe)
N           -1.42086811717744       -1.34451603705077       -0.74844901330902
H           -1.25284583001886       -1.83269585424684       -1.61814360855636
H           -1.06507717963222       -1.92457695174665        0.00451494621858
H           -1.09606692199058        0.24267129181018        0.09138908330563
C           -2.84528491402478       -1.06378609791512       -0.54517786922727
H           -3.32430395727373       -1.02173251466341       -1.52723058314024
C           -3.52729469360527       -2.12833064525151        0.31902371047407
C           -2.96298718471648        0.31398255600300        0.16141275773323
H           -3.02359486594505       -2.19722263477771        1.28219048719598
H           -4.56764867561478       -1.87825898419915        0.50381013896450
H           -3.48493259708233       -3.09921719204101       -0.17262494050746
O           -1.77408584286889        0.83298252722993        0.48846536690184
N           -3.97495858893058        0.91406191706146        0.59208770238330
H           -5.05359708406950        0.02467558245045       -1.90326031284406
C           -5.36433261623404        0.99921733945040        0.30502139408430
H           -5.84372594085291        1.18608797206151        1.27237221250285
C           -5.55800913757122        2.24763719405316       -0.58762219077445
C           -6.10110434753894       -0.16997008523904       -0.31728299570223
H           -5.08734334248064        3.08235909099755       -0.06755783178783
H           -5.00679153403254        2.10371669384131       -1.52335486701735
C           -7.01692130695323        2.59139634422608       -0.90715098515472
O           -5.70625153658395       -0.58961231069867       -1.54435847915120
H           -7.49363418506201        1.73032185457766       -1.38937014409705
C           -7.80565127589103        2.93489628878032        0.35303459777053
C           -7.05041403352072        3.76770627410031       -1.88263012003818
H           -7.32100771921688        3.74490004250897        0.89357196815638
H           -8.81153818847371        3.25083294518367        0.08791751262669
H           -7.88711531705299        2.07361634668904        1.00996013747787
H           -6.51727157345934        3.53005673132583       -2.80105875813994
H           -8.07685865383296        4.01623649721517       -2.14003838969271
H           -6.58698883489366        4.64352672927063       -1.43359979942644
N           -7.15314797889951       -0.58875878435011        0.23562716837716
H           -8.49787873273772       -0.36685789053914        1.46922050564873
C           -7.98937865345401       -1.59365771083215       -0.38001706725351
H           -8.08640800291937       -1.43667862652180       -1.46251185917783
C           -7.45463960162888       -3.00923715326858       -0.13511843317474
C           -9.37992364835067       -1.48679703692584        0.26342485008337
H           -7.28375167326535       -3.16428129989698        0.92859775038160
H           -8.18460311753818       -3.73238588416452       -0.48789370944496
H           -6.51964563350210       -3.15146941357633       -0.67163209517155
O           -9.40452610993607       -0.73051174728200        1.35441832822710
O          -10.34377772068829       -2.05200643480576       -0.17082034333749
