42
 energy: -62.486133513602 gnorm: 0.000479455627 xtb: 6.7.1 (edcfbbe)
N           -2.06189237324166       -1.02595266112564       -2.19744842441023
H           -1.42680292821144       -1.75293046062766       -2.50205346088339
H           -1.55457386627902       -0.14569271331223       -2.21221680983202
H           -3.84516560459100       -0.44942673589375       -2.55875895250387
C           -2.56253937073367       -1.29103935779682       -0.85049655967697
H           -2.85155136703509       -2.34894089029055       -0.81108511640550
C           -1.56646320989240       -0.99838366396905        0.26916320248085
C           -3.84884861441963       -0.48829904016823       -0.68257493339939
H           -1.24813999131699        0.04128488874839        0.22416275915195
H           -2.04379951267117       -1.16841584109252        1.22785983226612
H           -0.69276715840122       -1.64095567105678        0.18037356537701
O           -4.43565099700395       -0.14176391304439       -1.83833307820510
N           -4.28010167647216       -0.27620646312992        0.47940304429442
H           -6.46591387727706       -0.90125289520061        2.57615048002252
C           -5.50004735208929        0.45132605294552        0.77507412977374
H           -5.38402176512786        0.76441123700893        1.82325618518480
C           -5.79246757171596        1.68046135260293       -0.08977132499450
C           -6.61128769981111       -0.57329867421790        0.68932358469348
H           -4.89979658509545        2.30932278814274       -0.11018671638361
H           -5.99952055524481        1.34209614384802       -1.10301097399703
C           -6.98907610215640        2.49049861729337        0.42225154450323
O           -7.00338049370071       -1.18614208714383        1.82695836936666
H           -7.79872950374128        1.79298907703198        0.66512814755092
C           -6.64136106637560        3.29916584756478        1.67053229747329
C           -7.47875940711759        3.42764872142029       -0.68010772863204
H           -5.83930461452950        4.00149109150071        1.45267799063247
H           -7.50768537711615        3.86432413653210        2.00715426644472
H           -6.32124302871485        2.65808274009929        2.48830862594388
H           -7.78224493313040        2.86095622123559       -1.55673485774368
H           -8.32994774644556        4.01111213994757       -0.33657962537580
H           -6.68698237494658        4.11463251486964       -0.97129768808950
N           -7.06144480018155       -0.86334713656127       -0.44786610142240
H           -6.50853340909725       -1.05717292367095       -2.18548636433631
C           -8.03709123099963       -1.89543843122502       -0.67991628365283
H           -7.94368527445773       -2.72974128550830        0.02878304680091
C           -9.46092717798579       -1.33574195170253       -0.60340141461289
C           -7.78905657912783       -2.43133272205465       -2.09982014162207
H           -9.55142348014925       -0.46547458541630       -1.25017532591152
H          -10.16334003331889       -2.09794407898428       -0.92861900588096
H           -9.69071280655807       -1.04354463826614        0.41861372999368
O           -6.86188905451905       -1.76639347088157       -2.77609063396760
O           -8.38802067932148       -3.36699710649039       -2.55420805247558
