42
 energy: -62.486133505946 gnorm: 0.000481119819 xtb: 6.7.1 (edcfbbe)
N           -1.99253403832630       -1.29509320976427        1.90709472021084
H           -1.06856808076860       -1.71025895598880        1.88487510203501
H           -2.62436598728398       -1.98492652456831        2.30607348483812
H           -2.90177661738861        0.33002356948086        2.41577349362899
C           -2.43943087110989       -0.94971043454874        0.55730635878715
H           -1.62795659762385       -0.37996151431948        0.08447338624060
C           -2.79918574784208       -2.14265274987190       -0.32448462906124
C           -3.61062532961041        0.00712155454541        0.70980587912845
H           -3.55985915801515       -2.75337840454696        0.15593007793074
H           -3.19410108585111       -1.78368275185673       -1.26820147370179
H           -1.91916426254729       -2.75528907511942       -0.50966605326710
O           -3.63739839947136        0.68328155962233        1.87612123899817
N           -4.44924446077495        0.12745301273874       -0.21753232987774
H           -7.48234997580824        1.78938161668088        1.22819045109465
C           -5.55504330788657        1.04930616867638       -0.09620946628245
H           -5.36382669372625        1.81694638020009        0.67004214049932
C           -5.76136874256456        1.69740726474038       -1.47681189014937
C           -6.78015088535070        0.25715327036845        0.29595845833684
H           -4.83174843300460        2.19972237152816       -1.75119877809097
H           -5.91826582986252        0.87997040333876       -2.18154086985372
C           -6.92524389364225        2.68946160259797       -1.56591160424095
O           -7.74010825815413        0.88413712844235        1.01487373470530
H           -7.83168703330097        2.21638116540022       -1.17227305326249
C           -6.64341946143754        3.96828785938147       -0.77742773049187
C           -7.18137023941497        3.03943806478577       -3.03122454077219
H           -5.77378363242790        4.47619951802305       -1.18915575229491
H           -7.49330120729799        4.64468701144673       -0.83769015870590
H           -6.44753655595536        3.76734623213289        0.27387401998159
H           -7.43072703720116        2.14770131795688       -3.60091014983772
H           -8.00647902658544        3.74288411923827       -3.11640446445473
H           -6.29656072000039        3.49293171122426       -3.47249623570151
N           -6.85203955069626       -0.94992667695614       -0.04151430656873
H           -5.89369877227122       -2.39140329996792       -0.47250036536868
C           -7.93711299382155       -1.82343828715789        0.31988441998578
H           -8.33455411295379       -1.61016832091015        1.32076520394963
C           -9.08025842243613       -1.74713645008531       -0.69722824650045
C           -7.35962047602648       -3.24959725859548        0.30423943290568
H           -8.69450882044051       -1.91246774004784       -1.70096519910906
H           -9.81742844153378       -2.51118010344941       -0.46702274827432
H           -9.54959037411059       -0.76724901662617       -0.65451813318644
O           -6.14660970943382       -3.31864978225811       -0.22938595944791
O           -7.95358801808981       -4.20307803247753        0.72592741658440
