42
 energy: -62.486132069082 gnorm: 0.000754845870 xtb: 6.7.1 (edcfbbe)
N           -1.12680985571497       -1.61209710366919        0.42595961550649
H           -1.25327838903486       -2.06383904756838        1.32581679788723
H           -0.13271087822658       -1.48683561780118        0.27648408698423
H           -2.56857955646562       -2.22020788583354       -0.61992867640712
C           -1.82605655832284       -0.32798159154997        0.38597843028409
H           -1.77633833370982        0.23513028734167        1.32688370799351
C           -1.26447674906168        0.53505175280888       -0.74385667259972
C           -3.29047986737733       -0.62220498605182        0.08077194832165
H           -1.31162925687064       -0.00411047560811       -1.68759875883158
H           -1.84785757615972        1.44670011147490       -0.82772482148513
H           -0.22822111406403        0.79740541405426       -0.54160756706388
O           -3.45268705789658       -1.79031697585653       -0.60553107534542
N           -4.14801479986482        0.21017050483278        0.42740868639059
H           -5.09359794660866       -2.05930540643309       -0.38579894527093
C           -5.56346054646245        0.37085599364287        0.25086889790217
H           -5.90214122165438        0.86748698388135        1.16601245388455
C           -5.66331729921283        1.38437091013766       -0.92351433935281
C           -6.50266896173686       -0.80308640422879        0.01363243496463
H           -4.91584493690782        2.15533235661686       -0.72201521787446
H           -5.36184001402526        0.86061347462236       -1.83486613834468
C           -7.01601533871466        2.05685176034111       -1.16016533229964
O           -6.05655581470662       -2.03767877226542       -0.23149331487110
H           -7.75526963430158        1.28633146931484       -1.38878839221044
C           -7.48228030342360        2.84841229577717        0.05786947869744
C           -6.90412928013887        2.98292086458610       -2.37122255838076
H           -6.75563525388123        3.61806442208290        0.31047514727863
H           -8.43388546156464        3.32975425550663       -0.15240773215580
H           -7.61320586063518        2.20027953298012        0.91969287210278
H           -6.59397955581311        2.43011892058602       -3.25500227589382
H           -7.86574280053533        3.44502078462811       -2.57884752621979
H           -6.17706402263159        3.77115853358055       -2.18567088381564
N           -7.74075702627996       -0.53698430790900        0.04202093261700
H           -9.16073865591442        0.63063669249908        0.17543224650661
C           -8.72663321220685       -1.56841921286115       -0.19582893115746
H           -8.46727143793292       -2.18906536170230       -1.06322939100975
C           -8.90676117929982       -2.48085671426033        1.02412037330085
C          -10.06683680949510       -0.87194660306935       -0.46073249440933
H           -9.13097589658872       -1.88268319460441        1.90538827015228
H           -9.72800256251782       -3.16804788815768        0.84090389780393
H           -7.99495294059045       -3.04550843600979        1.20044061742200
O          -10.07532498095955        0.41084357482567       -0.11590867713930
O          -11.02416472320750       -1.43924005934767       -0.90988366669516
