42
 energy: -62.486133516797 gnorm: 0.000479365578 xtb: 6.7.1 (edcfbbe)
N           -1.29006026976588       -1.47934998056236        0.43896319063665
H           -0.35194458081607       -1.66506306191563        0.10549344323369
H           -1.70009083819410       -2.37086777605501        0.70486519546075
H           -2.25077962815002       -0.31821872771489        1.62975666603667
C           -2.10184122146209       -0.85725250762896       -0.60758852987105
H           -1.50244249449101       -0.05151067607801       -1.04993523577564
C           -2.56379589237905       -1.80605989774221       -1.71071549846626
C           -3.28967846202490       -0.19292683624776        0.07148890411690
H           -3.10460919853417       -2.64555601922287       -1.27854802452563
H           -3.23727863137709       -1.27625052308667       -2.37512456243239
H           -1.71275619504068       -2.18387216469585       -2.27364119289030
O           -3.12957022649986        0.04147881407371        1.39442873758206
N           -4.30389961904738        0.10514198707031       -0.60427353047171
H           -6.43543326456497        0.01402124217283        2.07249112234433
C           -5.42842438905390        0.78350831249290       -0.00378851558118
H           -5.17141534657768        1.19436697129144        0.98556033957107
C           -5.86135454980594        1.90446566350942       -0.95913544658184
C           -6.54877940808282       -0.22058980513568        0.13900329997074
H           -5.01912231384451        2.58527393884635       -1.09489406757606
H           -6.07275110033823        1.42281762785498       -1.91329678291249
C           -7.09219160671741        2.68661223241040       -0.49092596422031
O           -6.98562228819496       -0.45513499564698        1.43264620841760
H           -7.88745290624972        1.97549187615034       -0.24072756969812
C           -6.79162310324336        3.54480439387842        0.73693948757163
C           -7.59164354785381        3.57217184761862       -1.63056940199964
H           -5.99389384392396        4.25134836790228        0.51661850071975
H           -7.67597939238107        4.10716556395883        1.02775050439402
H           -6.48656669481456        2.93986934058320        1.58761566336530
H           -7.85367460176685        2.96750233872322       -2.49468072884985
H           -8.47292122928910        4.12961760175990       -1.32231668974210
H           -6.82092821657738        4.28138200213377       -1.92516016087463
N           -6.99744576813542       -0.79594374074534       -0.87323421624770
H           -8.74714346324485       -0.54298671975372        1.00211171390982
C           -8.02548033228918       -1.80031166855794       -0.92932592249006
H           -8.02595613213352       -2.15579818115708       -1.96618636429483
C           -7.80446249424629       -2.99437321133575        0.00990696562981
C           -9.42492674978505       -1.22281972864716       -0.66458522276160
H           -7.85688327821673       -2.69611472103340        1.05480901257364
H           -8.56282852514081       -3.74977100008096       -0.18049581172468
H           -6.82268801503630       -3.42253786952451       -0.17982030693149
O           -9.57253312348352       -0.55956891395234        0.48241306767866
O          -10.33731831568878       -1.37618712682233       -1.42495713617340
