42
 energy: -62.486133497383 gnorm: 0.000482031172 xtb: 6.7.1 (edcfbbe)
N           -1.90144225737979       -1.44328036907194        1.33220766540986
H           -0.94333103299475       -1.76450291992093        1.25848845589977
H           -2.46053605512402       -2.22201772155065        1.67055620425508
H           -2.95888429872187       -0.01173032222443        2.04681785175229
C           -2.40700206805465       -0.99897889242266        0.03482482682383
H           -1.64435399624534       -0.34394941860552       -0.40539043675744
C           -2.72928473169145       -2.12670229696678       -0.94340381454763
C           -3.63144361742268       -0.13475755605093        0.30292647621843
H           -3.48262617376533       -2.78630869909683       -0.51755399684023
H           -3.12445855647033       -1.70560685568850       -1.86115380297106
H           -1.83494912413052       -2.70531475679964       -1.16649859545107
O           -3.71167645631527        0.36282263743558        1.54624446484212
N           -4.45923986063098        0.06945557155843       -0.62183622042231
H           -6.63041175706890        0.25296862967186       -2.52749813179876
C           -5.63790787211207        0.88767490095471       -0.39356104803430
H           -5.69944050448126        1.21033218005766        0.65218841118221
C           -5.60224597613848        2.10590574072853       -1.32164029870422
C           -6.78994900646412       -0.05801927486648       -0.65396812848377
H           -4.77883201226509        2.74314399577427       -0.99175974582229
H           -5.35478214911436        1.78067877968123       -2.33764707911919
C           -6.89993549218962        2.92429472012423       -1.33290855753878
O           -7.18147513768156       -0.26114383664771       -1.92370167843329
H           -7.73259105480838        2.28158486115022       -1.64075338941730
C           -7.22019024208337        3.48569762108034        0.05045935875280
C           -6.77253717856407        4.06168564269794       -2.34563582422816
H           -6.38157833055469        4.06602751715827        0.42915794947929
H           -8.09053839786752        4.13564940873388       -0.00269403379618
H           -7.43822606602488        2.68769788129784        0.75509508172133
H           -6.56200694699398        3.67686135078862       -3.34147147852046
H           -7.69504387332726        4.63527280812499       -2.39038618341915
H           -5.96557863891760        4.73308537798806       -2.06011563316842
N           -7.25286436033396       -0.70289948129972        0.32424209797164
H           -7.41226503544395       -0.91286131551972        2.10859175443295
C           -8.27480387488142       -1.71384257847128        0.17257691037571
H           -9.10654011023602       -1.36166579258331       -0.45043520663967
C           -7.71659602849346       -3.00620481946832       -0.43366609585559
C           -8.80871589837264       -2.02792966150713        1.57868551821094
H           -6.85360318957065       -3.33960711191068        0.13952406032824
H           -8.48309090952068       -3.77545635795746       -0.40379872540013
H           -7.41317999707683       -2.83405767280523       -1.46289802184594
O           -8.10833166540855       -1.45575273667470        2.55023747521226
O           -9.75370131950628       -2.74027498300653        1.77648666583650
