42
 energy: -62.486133514412 gnorm: 0.000479139345 xtb: 6.7.1 (edcfbbe)
N           -1.68144722240843       -1.56558702500345        0.66074257707474
H           -1.27090642609680       -2.46803317306590        0.45083765028264
H           -1.72515355870496       -1.47968025338156        1.67275845590355
H           -1.54044075338202        0.26092695203736        0.21345512982449
C           -3.03153685510474       -1.46491238005883        0.10275427820711
H           -2.97652092369037       -1.80325818105734       -0.94045799090476
C           -4.07776605125145       -2.28555264416092        0.84547926236933
C           -3.40515384144138        0.02875830932534        0.03939986025329
H           -4.10379301683985       -2.00134578699602        1.89613284548097
H           -5.05075484864646       -2.08992357434384        0.40792871972878
H           -3.85402839257309       -3.34861809075778        0.77645788866116
O           -2.31688355454258        0.84128463738826        0.07862255735154
N           -4.52967773233712        0.50712963045533       -0.08690063822496
H           -7.65379927906065        1.12918995610678       -1.91014043082951
C           -5.80118587825206        1.03860198338352       -0.25298362385217
H           -6.08491174308880        1.46118822678447        0.72543522667225
C           -5.76531788621679        2.19974038456695       -1.27657211493387
C           -6.88584202101993       -0.00329208296571       -0.55996303190377
H           -4.77834748622860        2.65658169883593       -1.18796341848599
H           -5.82456095627032        1.79454255823619       -2.29191713103943
C           -6.83172946770159        3.28490212420576       -1.04911483181882
O           -7.80356605369713        0.26337351863958       -1.50974625981521
H           -7.78315479455595        2.82601355495880       -0.75014689560136
C           -6.40279597283005        4.22871025023238        0.07264656187409
C           -7.05952570138231        4.07693017190179       -2.33673940312332
H           -5.49568991343132        4.75906699521458       -0.20766004514764
H           -7.18191096002618        4.96078411830934        0.27239423528511
H           -6.20676698428949        3.68107941366258        0.99124944546822
H           -7.42461108924531        3.43780690811249       -3.13931530941954
H           -7.79057245082325        4.86524922196902       -2.17392330446774
H           -6.12926278644208        4.53614759278543       -2.66340754225128
N           -6.89587442079446       -1.08472889479972        0.08799426320249
H           -6.70379448625248       -1.76416805317925        1.79286352594469
C           -7.91322783124829       -2.09009389395600       -0.12793258707226
H           -8.87945550778716       -1.64186569125393       -0.39623663805705
C           -7.51035795284597       -3.07565460028397       -1.22872603123137
C           -8.09865591111854       -2.85829987791460        1.18951739365728
H           -6.53636567138386       -3.50690510781377       -1.00825107715875
H           -8.24801876869624       -3.87148329939671       -1.27884309368840
H           -7.46302945658047       -2.56398956592990       -2.18677726273353
O           -7.27452625849276       -2.47646527984161        2.15956392994170
O           -8.91529854885298       -3.72561652697160        1.32661155651937
