42
 energy: -62.486133503315 gnorm: 0.000481325823 xtb: 6.7.1 (edcfbbe)
N           -0.98789564423872       -1.41636629630256        0.53829247302995
H           -0.86851385659100       -1.12574486284556        1.50331452148928
H           -0.06721230281805       -1.52759108739400        0.13014931968189
H           -2.58148470892729       -2.41057238717279        0.56198621567093
C           -1.77372836757686       -0.43426095357656       -0.20755391474456
H           -1.55371500694298        0.60738240279348        0.06013888085358
C           -1.55271909418567       -0.62199344287368       -1.70895458337565
C           -3.24413728945399       -0.70599285672836        0.09384133980449
H           -1.76947872040070       -1.64886977464385       -1.99610406662887
H           -2.20964249783312        0.04564720030892       -2.25833818279272
H           -0.52148263149969       -0.39553874490561       -1.97170388823386
O           -3.46937069029401       -1.99780867242597        0.47141964296963
N           -4.05544626998359        0.22732151456276       -0.04027612456867
H           -5.08428603729288       -2.09252313270206        0.00262272406194
C           -5.47366140619538        0.42185247222080        0.09165181733757
H           -5.62376851568002        0.81617793442893        1.10604704508366
C           -5.74361551163046        1.56646993803138       -0.91756320112490
C           -6.45663184797834       -0.73121851918628       -0.07775877659382
H           -4.92021879690110        2.26899580293385       -0.77427078109766
H           -5.64607200877557        1.14941645686881       -1.92202108230538
C           -7.06377943719220        2.33522044016155       -0.82994201209930
O           -6.03512577633708       -1.99620561216419       -0.18121601793728
H           -7.86374279794460        1.70140420801944       -1.21528879988237
C           -7.40105737009012        2.75605046571883        0.59727676978749
C           -6.97068887349498        3.56982209931946       -1.72743370905481
H           -6.58903620517072        3.34309154987828        1.02194370124002
H           -8.30191285972420        3.36485946654617        0.60302861687982
H           -7.57339695843018        1.88856859493031        1.22893981057151
H           -6.71261471489358        3.28755710492077       -2.74530615110559
H           -7.92360819723136        4.09228728973149       -1.74955252879823
H           -6.21104937730081        4.25589433031043       -1.35793881128939
N           -7.68662139089218       -0.44249988714902       -0.15503620282578
H           -9.15771794326441        0.71210238673448       -0.02666280060191
C           -8.67310421871565       -1.48801037191963       -0.33443439208482
H           -8.39409015653898       -2.17599029931678       -1.14172379988357
C           -8.89642914336200       -2.29842342055364        0.95040387931795
C          -10.00613675748930       -0.81740482109625       -0.68112705429658
H           -9.14922677637906       -1.63066461990160        1.77244687929115
H           -9.71331853518572       -2.99806467362606        0.79647417509969
H           -7.99431597331027       -2.84898175563209        1.20396233906942
O          -10.05462245690210        0.46770625876660       -0.34598223149065
O          -10.93151412936504       -1.40512770680437       -1.16881576828504
