42
 energy: -62.486133511605 gnorm: 0.000479848200 xtb: 6.7.1 (edcfbbe)
N           -0.84179522679175       -0.31387159555385        0.45557899993777
H            0.09689396521586       -0.46886131232208        0.10827339896213
H           -0.98545400976793       -0.94230753057302        1.24131501299941
H           -2.02112821834519        1.17197463187021        0.91779758010281
C           -1.83619259170216       -0.58053914871832       -0.58226178135500
H           -1.51377742474788       -0.03940741071735       -1.48239197002563
C           -2.02481641632786       -2.05720135262793       -0.92439298865464
C           -3.13079746912935        0.07222979239374       -0.12274015107205
H           -2.41460242408636       -2.59681920246150       -0.06410683627650
H           -2.72693435373738       -2.16218321824000       -1.74470646122243
H           -1.07392825602502       -2.49778889080597       -1.21809422572967
O           -2.97266042005847        1.11950669351543        0.69790271558313
N           -4.23986065945227       -0.37432273663468       -0.51595312379391
H           -5.22515577817725       -1.64793722837762       -1.39080289529492
C           -5.49096371549103        0.24774457092554       -0.13244955021232
H           -5.52126239352665        0.45508861589546        0.94210116923558
C           -5.65787088656714        1.57053983765050       -0.90943647002438
C           -6.58000076336229       -0.74127922113103       -0.49956202095788
H           -4.81575830757003        2.20990000650339       -0.63594303635905
H           -5.57445987266013        1.34196062265923       -1.97563947069366
C           -6.96177720349697        2.33036584856175       -0.65986203444496
O           -6.19408578165841       -1.75570694729657       -1.28014969952732
H           -7.80103853226762        1.68599606968041       -0.93432115244324
C           -7.11144718516386        2.73568410975574        0.80367143912983
C           -6.99427115291208        3.57032456314093       -1.55273264025525
H           -6.26367694203617        3.34140922307511        1.11803031707539
H           -8.01946332648775        3.31790501569587        0.93891630497437
H           -7.17138910091838        1.86172241732635        1.44624782923863
H           -6.90730567361002        3.29461705038435       -2.60129120081923
H           -7.92953192254916        4.10741042505386       -1.41787677124894
H           -6.17401568847823        4.24104567611608       -1.30426502287109
N           -7.76059277756424       -0.55399852297906       -0.09533273206060
H           -9.02159568723580        0.50102015372812        0.68067513700077
C           -8.83336112889027       -1.45527829973171       -0.45774548743969
H           -8.82973870250113       -1.67552805958126       -1.53315095332634
C           -8.76255840033771       -2.77786866488443        0.31356073663731
C          -10.15417337506588       -0.75712917639110       -0.10289991144163
H           -8.71414453079118       -2.58159696750387        1.38293775339808
H           -9.65074152871882       -3.36545467904473        0.09903971568017
H           -7.87825108790060       -3.33400458804740        0.01330072793612
O           -9.99398989991197        0.36410533747921        0.58971723278154
O          -11.22851640928908       -1.19349177486664       -0.41202249168727
