42
 energy: -62.486133505063 gnorm: 0.000480629569 xtb: 6.7.1 (edcfbbe)
N           -1.84840743058006       -1.31006613234566       -0.75901433744274
H           -1.61640588666642       -0.73948705672611       -1.56510963932106
H           -1.69609282979584       -2.28043339477411       -1.00648853240297
H           -1.45429368119261       -0.21480244075405        0.73360792044418
C           -3.23134721637948       -1.09078128832454       -0.33470202041828
H           -3.92796845142239       -1.04193196944020       -1.18035967844604
C           -3.65466665667239       -2.21955717723573        0.60798568982468
C           -3.25885809879084        0.20593771248484        0.49373083413688
H           -2.93905647099250       -2.30484209110672        1.42292569070374
H           -4.63437032498667       -2.00622552200338        1.02615643792360
H           -3.69644958186725       -3.16819199059045        0.07566798286126
O           -2.08203096451170        0.45656366035558        1.07738678793504
N           -4.21732714697884        0.95658432045332        0.80123979991424
H           -5.52906891378696        0.36388651346733       -2.07323483279141
C           -5.53541388265316        1.13241671354317        0.27297811284948
H           -6.13297892463847        1.40843386652746        1.15053489766411
C           -5.49143843891402        2.33974409358605       -0.68333659909252
C           -6.24971404910619       -0.05590560462050       -0.34455906105386
H           -5.04593478532600        3.16295201394743       -0.12312554121931
H           -4.80691247234426        2.12575531265802       -1.51323845337929
C           -6.85640394464257        2.77663704423581       -1.23099127962684
O           -6.03666702968101       -0.34285692562503       -1.65267011866402
H           -7.31750448259736        1.94797022586174       -1.78152551707844
C           -7.80798053614887        3.18645061046744       -0.10965796489564
C           -6.65495298926031        3.94105827834383       -2.20062669402537
H           -7.34433599429228        3.93620402919895        0.52701448972617
H           -8.71793042336181        3.60792598857535       -0.53013821048433
H           -8.08565801488404        2.33167572487845        0.50114805811872
H           -5.98784280219663        3.66371028017961       -3.01465795964357
H           -7.60582031445175        4.24639298958676       -2.62993572484531
H           -6.22389650863288        4.79332733832769       -1.68041653357795
N           -7.06911734837135       -0.70134651418194        0.36108199483617
H           -8.12343317322549       -0.80168775507417        1.86466241599646
C           -7.86648174301420       -1.77767924054517       -0.18235164544302
H           -8.23479024361062       -1.53463456994174       -1.18774626245771
C           -7.10418095107583       -3.10483124481897       -0.25192778572430
C           -9.07100028302306       -1.96834677538801        0.75263610435403
H           -6.71175579411833       -3.36449926005313        0.72915346174816
H           -7.78498589732152       -3.88616911057111       -0.57795919576635
H           -6.28224491190250       -3.02531364469044       -0.95881775797732
O           -8.96442403013603       -1.31096147753374        1.90066510347407
O          -10.00603357346876       -2.66475376376475        0.47325221527062
