42
 energy: -62.486133513537 gnorm: 0.000479656311 xtb: 6.7.1 (edcfbbe)
N           -0.74548324461183       -0.18893039505544       -0.56855989157741
H            0.04081683631363       -0.70967972707296       -0.93740738080777
H           -0.54558632124852        0.01858030268356        0.40612465116560
H           -1.85949206667988        1.29886657419465       -1.02043747032652
C           -1.98116123671847       -0.96319828056567       -0.66692129161900
H           -2.03177397266725       -1.35489708792442       -1.69246693830891
C           -2.08818288128525       -2.12201144003739        0.32146084008160
C           -3.14000255415461        0.02348308364006       -0.51724872657757
H           -2.02202562215850       -1.74956276541399        1.34147184422120
H           -3.04447786615375       -2.62011812988350        0.20510600177346
H           -1.28697663159987       -2.83873201975930        0.15230730560991
O           -2.82106020584532        1.28772981464134       -0.83333807866420
N           -4.24586374064507       -0.41760142759486       -0.11783779843349
H           -5.18992284197145       -1.42739725724314       -1.57072845749527
C           -5.49989734231499        0.28325121979270        0.02167883868014
H           -5.68525576571434        0.38403864334602        1.09575223586256
C           -5.59799067290873        1.66723927729391       -0.64959232495879
C           -6.55923352091054       -0.64119870466829       -0.55129871207234
H           -4.81554213486950        2.30245232178322       -0.23327013368968
H           -5.39259257667206        1.54493212125223       -1.71667155568237
C           -6.94757448654997        2.37143326997644       -0.47895695742492
O           -6.16024758899522       -1.46964466905796       -1.53057292158394
H           -7.73881355703063        1.72585016285883       -0.87039616874650
C           -7.24781351843408        2.67768849222953        0.98624074339428
C           -6.94141315351823        3.66743099662282       -1.28885536075087
H           -6.46727569413517        3.30741888820928        1.40896215276297
H           -8.19558847788986        3.20345242449450        1.07017376629174
H           -7.31533756227172        1.76589342572244        1.57316186381477
H           -6.75858744830325        3.46554496639994       -2.34181415414203
H           -7.89982050942944        4.17279243283486       -1.19982681079983
H           -6.16411758864729        4.33808536926780       -0.92816658362235
N           -7.73262068438030       -0.60448566716928       -0.09386215725804
H           -9.04681898907686        0.35095796470885        0.74170865275511
C           -8.78158284799284       -1.44438836371437       -0.62926855090551
H           -8.71490691509336       -1.54457881340376       -1.72000061420775
C           -8.74869134960746       -2.84202577181704       -0.00130250470484
C          -10.12298990996591       -0.78584539049918       -0.27510370384661
H           -8.77482497410176       -2.76169595304340        1.08349754310478
H           -9.61294224027104       -3.40732481047129       -0.33843620668479
H           -7.83901471001763       -3.35864581319147       -0.29675680284557
O          -10.00970450648199        0.23237642212795        0.56885975081471
O          -11.17380018451387       -1.16956151303561       -0.70847292298543
