42
 energy: -62.486133517730 gnorm: 0.000479512372 xtb: 6.7.1 (edcfbbe)
N           -0.94017142761336       -1.17879848836449        0.56387324164798
H           -0.74417297560236       -0.59751757810995        1.37222750923170
H           -0.05553453924388       -1.43415814053119        0.14109416765795
H           -2.53631241936465       -2.08438013191640        1.02048420723998
C           -1.78843249893445       -0.46897071413160       -0.39249530926325
H           -1.54244385554745        0.59476450313618       -0.50577142709440
C           -1.71078155955967       -1.15043504244475       -1.75942837997836
C           -3.22257943508270       -0.58061086578458        0.10685322930501
H           -1.96057440858969       -2.20577457930491       -1.66883315894281
H           -2.41064679387408       -0.67807706861903       -2.44214550321088
H           -0.70689627728534       -1.06350086722483       -2.16948180460579
O           -3.42533691549624       -1.69198256313067        0.87471838866675
N           -4.03694479283707        0.30596620328526       -0.21112827402166
H           -5.00447098780557       -1.95962903223421        0.30484344968088
C           -5.44566244856239        0.51681864542305        0.01574889596065
H           -5.54451934687642        0.92161551055667        1.03448973918372
C           -5.78494739876187        1.63768068404351       -0.99206952383076
C           -6.39784212712326       -0.66991635797724       -0.05855447462714
H           -4.96942277422674        2.35726651869233       -0.89447600766780
H           -5.72147960724272        1.20944719777717       -1.99375231880693
C           -7.11478213936824        2.38480031185934       -0.85676850394130
O           -5.93403511302534       -1.92382672962052        0.02222998145845
H           -7.90970688184039        1.75552430834686       -1.25924961176858
C           -7.44563003257465        2.74249984948918        0.58903623575585
C           -7.05159537553040        3.65513414217667       -1.70572295532547
H           -6.63784121340945        3.32118247054727        1.03308260948990
H           -8.35281924156644        3.34111796279035        0.62596193140726
H           -7.60525782303760        1.84698020134474        1.18386484952915
H           -6.79189097783880        3.41728147820844       -2.73437767469802
H           -8.01526833438573        4.15831991008373       -1.70442746898817
H           -6.30486370386920        4.34232598268187       -1.31276411491498
N           -7.63146701460898       -0.43843722798269       -0.21597084437502
H           -9.16348403268845        0.65714816963274       -0.24064233826125
C           -8.57298020743531       -1.53729222726093       -0.29492467882635
H           -8.24006496156054       -2.30614280106473       -1.00230216640614
C           -8.81420497394730       -2.19382070488908        1.07212428832596
C           -9.91712587989085       -0.97022039701180       -0.76103048308854
H           -9.12356285079563       -1.44267475506522        1.79699904789319
H           -9.59759242105681       -2.94078721229023        0.97807924518279
H           -7.90286671490431       -2.67154878079447        1.42158775027706
O          -10.03501993652381        0.33859211794727       -0.56353179197377
O          -10.79495883906940       -1.64798980409600       -1.21851479838505
