42
 energy: -62.486137871072 gnorm: 0.000458922817 xtb: 6.7.1 (edcfbbe)
N           -1.54307205812029       -0.60906887791322        0.88039872956367
H           -0.73313080577657       -1.20052519587038        0.73692271153238
H           -1.78065340751809       -0.65560134121582        1.86771494633673
H           -2.21087174367998        1.14981236514516        0.41641469118904
C           -2.67671596040437       -1.08051636775469        0.08379255595974
H           -2.31189906252065       -1.21774235205210       -0.94304419855119
C           -3.31025675732451       -2.38002159265371        0.57216721093313
C           -3.69032939515648        0.05504210550618        0.03908363210039
H           -3.66196351375539       -2.26698142539781        1.59467369998276
H           -4.16217079251081       -2.62300957796962       -0.05233730688960
H           -2.58836394005515       -3.19309566181580        0.53211265514656
O           -3.15389986984299        1.28393415665298        0.19285037105555
N           -4.90176827230845       -0.22110938053080       -0.12213327875048
H           -7.83135687723261        1.11235673885136       -1.84470659415763
C           -5.97270814033863        0.74637524593297       -0.20591338118720
H           -6.10124542953949        1.20522123248207        0.78506256003013
C           -5.74253085851771        1.86104520550284       -1.23966738241225
C           -7.21535041559521       -0.09236970369795       -0.47975151962391
H           -4.69699059374004        2.16252260103294       -1.17907729524009
H           -5.89258005284472        1.45577562130180       -2.24618008032292
C           -6.61564737969147        3.10655489048092       -1.00547260773999
O           -8.11109605821582        0.29801823848168       -1.40764997263475
H           -7.61060107400485        2.80812922547980       -0.65097388529003
C           -5.99237110868604        3.99849591257977        0.06649224283529
C           -6.77918714447218        3.89257130293973       -2.30618447836849
H           -5.02854197095685        4.37402872685999       -0.26961139986618
H           -6.63844685994989        4.84708591508004        0.27949335015715
H           -5.83785706177101        3.44670870022635        0.99034830370126
H           -7.27193555874481        3.29739320195569       -3.07368772901145
H           -7.37584558668106        4.78588315458991       -2.13716455620215
H           -5.80636612289425        4.19858013856622       -2.68473430087792
N           -7.34347727553006       -1.13346520809041        0.21117774817540
H           -6.51582176795174       -2.23102903097430        1.31090731590786
C           -8.41037187523131       -2.09315677772197        0.09822865621057
H           -9.37606344071405       -1.64357141811702        0.36229046070621
C           -8.52463267785265       -2.73331666282254       -1.28917127776909
C           -8.09211093978984       -3.20057170719859        1.12262308104880
H           -7.55379324910932       -3.11514041215187       -1.59892938218639
H           -9.23268318394078       -3.55611785122502       -1.24273867488591
H           -8.86612753102930       -2.00127053621026       -2.01563723863941
O           -6.89967339160899       -3.06698618464964        1.68492933399407
O           -8.84568208194479       -4.10289328358307        1.36601752154865
