42
 energy: -62.486133511030 gnorm: 0.000480128911 xtb: 6.7.1 (edcfbbe)
N           -0.74679717274336       -0.13816899656474       -0.22039201804901
H            0.08640349315538       -0.24385231978473       -0.78615394944202
H           -0.62640668448171       -0.71173601762336        0.61016326546068
H           -1.88890257816843        1.26320356815810        0.46224792028893
C           -1.93729177114488       -0.56686261781887       -0.95373925643354
H           -1.88078431972476       -0.12444308814066       -1.95642433546722
C           -2.10231382441285       -2.07938624954052       -1.08352929609333
C           -3.13890569249644        0.07110911248312       -0.27239312391949
H           -2.10678809643423       -2.54375308839302       -0.09885672799499
H           -3.04647348668759       -2.29565773123699       -1.57186477127526
H           -1.28819699840670       -2.50280401332729       -1.66796454915236
O           -2.86174545451683        1.15737210280650        0.46776453674482
N           -4.28541943508621       -0.41762757770432       -0.44273026683219
H           -5.31532488423500       -1.98596913624451        1.06558712811165
C           -5.45578248095322        0.20309930118090        0.15441549791905
H           -5.25613686205634        0.46338899642648        1.20597943401810
C           -5.85194954460301        1.46868738493685       -0.61517593316638
C           -6.52588347684986       -0.86522633118417        0.11328749740493
H           -4.96882779556324        2.10608019144009       -0.68976373816994
H           -6.13719563030061        1.16266548865280       -1.62237481395497
C           -6.99038157499805        2.26408380313112        0.03333069807562
O           -6.24458756392716       -1.99248334460644        0.80235872199623
H           -7.77218808899971        1.56519962316742        0.34372741500974
C           -6.50159148178613        3.03305520636758        1.25920057697504
C           -7.58233890439653        3.23600469197918       -0.98601293301280
H           -5.72646076378090        3.74250543637186        0.97662679475934
H           -7.32256581344426        3.58460819049823        1.71158873248816
H           -6.09247914392440        2.36264329020211        2.01075294586066
H           -7.98867068502315        2.70266980560192       -1.84186225886355
H           -8.38315491696580        3.81757591765445       -0.53560022002684
H           -6.81759157741724        3.92450151921516       -1.33985684594125
N           -7.56062469345167       -0.72266137066052       -0.58511776770822
H           -8.47394656196338        0.21535536019879       -1.81553817284477
C           -8.57281667817687       -1.74629018315543       -0.69570911410218
H           -8.13296440923561       -2.73035665499567       -0.90199365854879
C           -9.43226112420749       -1.84690389288684        0.56920427506845
C           -9.48102631114053       -1.34978011109123       -1.87098042207739
H           -9.84518392897472       -0.87098049779669        0.81748576249021
H          -10.24772974600664       -2.54272073409720        0.39310264032629
H           -8.82770958389107       -2.19949308598545        1.40092628299410
O           -9.23725440737373       -0.13160414947345       -2.33759961006729
O          -10.33794060800717       -2.06707364489357       -2.30718129792417
