42
 energy: -62.486133507343 gnorm: 0.000480439245 xtb: 6.7.1 (edcfbbe)
N           -1.61019297280295       -0.60303999794131        1.08095488726777
H           -0.73103526347908       -1.07921607668402        0.91810863464601
H           -1.93712875556060       -0.87811669902953        2.00355890329206
H           -2.42351292336033        1.14606629106932        0.95650283466207
C           -2.60316631790110       -0.98597006303181        0.07664447995738
H           -2.12098545617145       -0.89875822691272       -0.90593484181843
C           -3.16994240287701       -2.39414646286248        0.23940047152121
C           -3.70716456446582        0.05942512953583        0.12148855322653
H           -3.61714894791421       -2.50767629490307        1.22445994967788
H           -3.94284354456501       -2.55682362026419       -0.50331263158036
H           -2.38496928194430       -3.13763549658784        0.11707148694334
O           -3.33976528814302        1.25125926348145        0.62981349492160
N           -4.85412404151221       -0.23470330405505       -0.29634322224583
H           -7.79951715807637        1.04203473697865       -1.92423661884832
C           -5.94071519619779        0.72290143163318       -0.27732106739951
H           -6.01625652227800        1.17027306013590        0.72472753946240
C           -5.73375172603272        1.84850838351878       -1.30243917226283
C           -7.19502507680130       -0.10546817932783       -0.50704095783874
H           -4.68980093336401        2.15981303123366       -1.24115508817844
H           -5.88044454459710        1.44916357070606       -2.31171163806670
C           -6.62189780290775        3.08005478217735       -1.05499507068113
O           -8.08804153360696        0.25211158582203       -1.44981644496755
H           -7.61270364158439        2.76267780713415       -0.70641634030830
C           -6.01224390484989        3.96749473805155        0.02833095303428
C           -6.79402435713622        3.87815386316236       -2.34726792389452
H           -5.05754087765818        4.36757215728225       -0.30550653501817
H           -6.67416301553833        4.79965685198514        0.25664907822519
H           -5.84253689819140        3.40442301466058        0.94237302379700
H           -7.28299049569001        3.28676807618314       -3.12008091865400
H           -7.39791019110389        4.76447346569018       -2.16783808694813
H           -5.82445400592939        4.19650188188170       -2.72422509893883
N           -7.33820858008893       -1.11319872898364        0.23097632727658
H           -6.56633621250722       -2.18888600783614        1.39749393738146
C           -8.43264775571603       -2.04726974042963        0.15081879386071
H           -9.39293046320226       -1.55266362525116        0.34396953481936
C           -8.51367379671443       -2.77962038661333       -1.19315218701673
C           -8.18452235693729       -3.09091288660749        1.25583052411488
H           -7.54652516602615       -3.21742211420947       -1.43217906010932
H           -9.25598784260988       -3.56990571663559       -1.12337506643063
H           -8.79432985831836       -2.08717027871978       -1.98187784453775
O           -6.98990581755554       -2.97915958699042        1.82107155449816
O           -8.98512578530938       -3.93359547528754        1.55491605684261
