42
 energy: -62.486133515550 gnorm: 0.000479371390 xtb: 6.7.1 (edcfbbe)
N           -1.56916565021387       -0.14507856642515        0.94718407382634
H           -0.71786185570204       -0.69028347759864        0.87681139090818
H           -1.80021086481861       -0.07174608439660        1.93445480836408
H           -2.37058211960874        1.47773535348311        0.20257385602772
C           -2.66596104834156       -0.80697342500414        0.23811600217206
H           -2.29862492588915       -1.03587466113993       -0.77185830385287
C           -3.17496104137449       -2.08845912887816        0.89004228431143
C           -3.76973160222105        0.22678614159590        0.07390370275898
H           -3.57462092942273       -1.87694250219981        1.87831181680867
H           -3.96928220292859       -2.51242572627138        0.28696589346280
H           -2.36756768106781       -2.81252144126117        0.97986718989145
O           -3.32615583699629        1.50019143775706       -0.00154324594536
N           -4.96484429006607       -0.14861675219097        0.02886983254423
H           -8.31540459173952        1.20468077636685       -1.14062370563814
C           -6.08669252907054        0.73433214651086       -0.17661447643011
H           -6.19028269469662        1.38756169790865        0.70402255476429
C           -5.98121976712914        1.61679729306604       -1.44081744284535
C           -7.31340111260572       -0.16086762695418       -0.22426333732191
H           -4.92647745336075        1.74201054693326       -1.68373118069803
H           -6.43796106612254        1.08672344112560       -2.28207431552209
C           -6.60187403276246        3.01530979626072       -1.28307347964542
O           -8.44851189532888        0.31941302483197       -0.77899810794952
H           -7.53471925223453        2.95371696425007       -0.70527389588921
C           -5.65094356746158        3.93948328121695       -0.52575949741041
C           -6.92666408395013        3.60543450232879       -2.65471647667031
H           -4.74399068838829        4.09915065322664       -1.10372398717500
H           -6.11997081384698        4.90360534844222       -0.34244797285748
H           -5.36682960497027        3.50655810632849        0.42979469114850
H           -7.64088481039708        2.98495624492991       -3.19342577931048
H           -7.35224889018396        4.60064887652976       -2.54915045023277
H           -6.02208917648267        3.68253166185943       -3.25357240553176
N           -7.23046729463674       -1.30128806403001        0.29154235091454
H           -6.20209177809998       -2.42518634667730        1.16819248139982
C           -8.29756507145032       -2.26522051883150        0.34833232037654
H           -9.19165702364603       -1.84879802500783        0.83048363418336
C           -8.68893110967141       -2.81072329093535       -1.02844351991491
C           -7.77162256084647       -3.42727166148265        1.21373187451815
H           -7.80175992954921       -3.16201511936997       -1.55142399817699
H           -9.37850697546994       -3.64028633263874       -0.89968258949344
H           -9.16456637196058       -2.03170318827094       -1.61831564600398
O           -6.49868183553717       -3.29214431951297        1.55371380698966
O           -8.45060522204180       -4.36522651969827        1.53155372658728
