42
 energy: -62.486133525274 gnorm: 0.000478305881 xtb: 6.7.1 (edcfbbe)
N           -1.89293520066435       -1.78909319354031       -0.78695664665911
H           -1.76544344117757       -1.64531139612757       -1.78259477383840
H           -1.79657223232851       -2.77921108805613       -0.59700297547862
H           -1.22013713927680       -0.26290817725369       -0.00392443929129
C           -3.19643582578645       -1.29209966567779       -0.34046483414565
H           -3.97176571992770       -1.44071548433368       -1.10020474669057
C           -3.61163373442725       -2.00804769587065        0.94610067834606
C           -3.02716446859082        0.20251363243951        0.01098047863378
H           -2.84005666717263       -1.88421112243093        1.70313077455870
H           -4.54110426361434       -1.58950321678024        1.32276978014452
H           -3.75695031416499       -3.07109227090219        0.76073516564377
O           -1.74788624851972        0.54418763974161        0.19149734947252
N           -3.89025489183328        1.07004940437892        0.29382404636757
H           -5.18925037907837        0.29279797156772       -2.16181763466874
C           -5.30212415214723        1.16004464432460        0.09915246745068
H           -5.72140078601438        1.33509029373211        1.09726064739076
C           -5.55734902337190        2.41523961780883       -0.76290954258046
C           -6.04650156924876       -0.02278270605659       -0.47863098921977
H           -5.09539777778967        3.25410785173943       -0.24224936493513
H           -5.03084749898145        2.30872592394489       -1.71729185998329
C           -7.03674036144990        2.71652932179785       -1.02804414145153
O           -5.78303048866574       -0.35916888731727       -1.76624604235210
H           -7.49672973122984        1.85605343693448       -1.52812843162810
C           -7.80018411270407        2.98236320567001        0.26647839240489
C           -7.14317029975151        3.92498898476600       -1.95738301237083
H           -7.31920872462663        3.77595044581467        0.83361117938441
H           -8.81881933855521        3.28907709089018        0.04175505915953
H           -7.84789780397425        2.08923215141999        0.88313457163653
H           -6.62156041279830        3.74437609967640       -2.89500238418176
H           -8.18470890068976        4.13919592601291       -2.18316397724166
H           -6.70639704980693        4.80216349786163       -1.48545784624122
N           -6.94861058684175       -0.57908445175428        0.20105184313657
H           -8.16746665836171       -0.47945759253670        1.57871183278647
C           -7.76517546258071       -1.64183125095143       -0.34031535806102
H           -7.99333641998025       -1.48349795228166       -1.40220616278328
C           -7.09527104118933       -3.01034041325864       -0.17701798530543
C           -9.08069655392869       -1.65859027315943        0.45306104085719
H           -6.82539544829319       -3.17148276056078        0.86464834607247
H           -7.78876845659409       -3.78598474172446       -0.48916121128571
H           -6.19850270475391       -3.06167985870691       -0.78958026510195
O           -9.04844482312508       -0.91524816573316        1.55289885079945
O          -10.03452072410979       -2.30188408315892        0.11744351200501
