42
 energy: -62.486133516029 gnorm: 0.000479355124 xtb: 6.7.1 (edcfbbe)
N           -2.01552962288213       -2.19400552078777        0.79414450504111
H           -2.11817031453492       -2.07472030751296        1.79678599112308
H           -1.08974642776427       -2.56633590465909        0.61784378882826
H           -3.85389208478399       -2.51430207363011        0.24792022233334
C           -2.20353227016045       -0.92051765583504        0.10281388481301
H           -1.71264247783984       -0.06754489012294        0.59074219346655
C           -1.69456611654753       -1.03661402450097       -1.33494822274211
C           -3.70023081389610       -0.65274911434418        0.06308923445468
H           -2.18559339477324       -1.86565926470011       -1.84094507772722
H           -1.90214074637198       -0.11555871085511       -1.87167828942310
H           -0.62095399206964       -1.21191822191766       -1.34307643756646
O           -4.45903723127836       -1.76389628460541        0.07713905018579
N           -4.10030132930565        0.53511400134013        0.01094318814932
H           -5.70561220633304       -0.48948136675897       -2.02796769731420
C           -5.48004185205101        0.95315108641519       -0.08208327107525
H           -5.71957906467311        1.41086348337519        0.88413982102370
C           -5.56535249546440        2.02827856266246       -1.17988555026625
C           -6.49082330359231       -0.14550633106162       -0.31935432541516
H           -4.89165502170250        2.83713670863350       -0.89440315170303
H           -5.18590438233511        1.61316718549042       -2.11914637366882
C           -6.97682558230633        2.58054244053244       -1.40774485764508
O           -6.46189522759321       -0.78422382438152       -1.50644096258838
H           -7.63799677745283        1.75714971418499       -1.70092962803596
C           -7.54430882920457        3.22347104592674       -0.14508558030645
C           -6.94113415051644        3.59820882108046       -2.54723630135505
H           -6.86022939201873        3.97745972857522        0.23832088943421
H           -8.49455953197608        3.70332081780523       -0.36665827195521
H           -7.71668578313505        2.47855037845280        0.62673121345829
H           -6.55194679050620        3.14928038027210       -3.45872184883034
H           -7.94052910583661        3.97342682122281       -2.75256598133576
H           -6.30627217479105        4.44060667835738       -2.28112287443001
N           -7.35730981727928       -0.37496186526932        0.56628500802374
H           -8.24871005979373        0.09415022370632        2.07665666837183
C           -8.36793355228254       -1.39357041217851        0.38153747520168
H           -8.78325521125852       -1.37984945321456       -0.63388041549091
C           -7.80593413377433       -2.79029178407908        0.66951164642651
C           -9.49109546152106       -1.10865213268141        1.38613440415434
H           -7.38240518723903       -2.81857790897738        1.67140790730454
H           -8.60369205145350       -3.52375060640837        0.59613583990450
H           -7.02453447798263       -3.02348961912377       -0.04886661842092
O           -9.15696207020985       -0.21106330139833        2.30760666598742
O          -10.55667077706427       -1.65866317509738        1.35578677545016
