42
 energy: -62.486133498764 gnorm: 0.000481894293 xtb: 6.7.1 (edcfbbe)
N           -2.27585217837240       -2.15845915958577        1.19302812064648
H           -2.38520685499826       -1.88462926348571        2.16417999010736
H           -1.36443492848984       -2.58911825591530        1.09139278069247
H           -4.13153270189770       -2.46604795888486        0.66610847332780
C           -2.40228146398052       -0.99814172974952        0.31423338589504
H           -1.86100520228282       -0.10824226464985        0.66397113477979
C           -1.91379265523961       -1.36365018336731       -1.08828078326853
C           -3.88383849994367       -0.65876537825130        0.23666919690803
H           -2.46074904455377       -2.22678355089642       -1.46224875042173
H           -2.06875332988043       -0.52448318323481       -1.75978278103664
H           -0.85326350000438       -1.60553158370993       -1.06817677291870
O           -4.69825570832973       -1.71113864208432        0.40651476925617
N           -4.21147117296178        0.52808385052374       -0.00404308923751
H           -6.04579686136272        0.10149082301705       -2.32748618295903
C           -5.56325732018193        1.02886555718653       -0.12783924647947
H           -5.83786183586186        1.40463092125807        0.86539931675570
C           -5.52675888926655        2.20609322358965       -1.11411706298446
C           -6.59781422920003       -0.01190631534566       -0.49725575365240
H           -4.83577549117273        2.94426602159339       -0.70477498145234
H           -5.09636158200593        1.87283033544716       -2.06437675766983
C           -6.89005974083671        2.86083265052960       -1.36749159215362
O           -6.68231492354231       -0.38779322694721       -1.79133936920169
H           -7.58081070486695        2.11390354981457       -1.77542357338873
C           -7.49620583388012        3.41573030400631       -0.08063890350287
C           -6.72956748276657        3.97821669412050       -2.39772336141667
H           -6.79575721820187        4.08736290527015        0.41094340557782
H           -8.40325093742752        3.97178880280698       -0.30580963424840
H           -7.75549468532410        2.61465842565120        0.60649514678469
H           -6.31047334727700        3.59625346796751       -3.32639636736582
H           -7.69241142389865        4.43142786714838       -2.62013290283661
H           -6.06683033279684        4.75133364031345       -2.01514002991464
N           -7.30094966376704       -0.52162180112848        0.41420866713853
H           -7.82268100128444       -0.58897724836839        2.13594755372371
C           -8.29143123106594       -1.53989984340398        0.14542576206440
H           -8.94314127373435       -1.25443301236390       -0.69008518463825
C           -7.66245951082694       -2.90304097433523       -0.16253892256250
C           -9.14264679272047       -1.68300464679140        1.41508327092998
H           -6.98072467695159       -3.18137360774857        0.63757129887576
H           -8.44821700409803       -3.64874568921414       -0.24424427844699
H           -7.10828456564281       -2.85177471965713       -1.09546629914048
O           -8.63201278852782       -1.04876306176543        2.46420174297249
O          -10.15640261005225       -2.32346967581719        1.45837393979882
