42
 energy: -62.486133513619 gnorm: 0.000479674680 xtb: 6.7.1 (edcfbbe)
N           -1.70787313838662       -1.35356018749299        1.14185149170971
H           -1.15700194573418       -0.53359041163502        1.37254520796044
H           -1.07727371648172       -2.14236799859685        1.06476053728423
H           -3.41197736469513       -0.95470662527130        1.97458382694678
C           -2.44391444174201       -1.15171382787134       -0.10435168891830
H           -1.87356144186032       -0.61814272751021       -0.87742030124795
C           -2.90221688304413       -2.50050022121059       -0.66147497714953
C           -3.68184747640249       -0.33803410083953        0.23171557645495
H           -3.47854373472641       -3.03771351756291        0.08857473252623
H           -3.52487305720932       -2.34093120707164       -1.53652883262059
H           -2.04389866197945       -3.10585610956488       -0.94512190203257
O           -4.09165787771733       -0.43042677305985        1.50240655637183
N           -4.24966496688965        0.32056546020850       -0.67888807465135
H           -6.06525010992397        0.10180509529471       -2.53185388929977
C           -5.49147754646652        1.02405719376138       -0.39730895698993
H           -5.56913434025080        1.28869770383441        0.66279181070977
C           -5.57043193251548        2.27243458449906       -1.28175527637200
C           -6.57142134484549        0.01296849382472       -0.70053984765878
H           -4.84956948165036        2.99835773136050       -0.90096077422393
H           -5.24876724800541        2.01130805240581       -2.29426128090079
C           -6.96285214356700        2.91204879776843       -1.33139572862151
O           -6.71589404047637       -0.36001595838893       -1.98685455581878
H           -7.67759569601756        2.18065281550067       -1.72581935333922
C           -7.43467731915873        3.33943453344773        0.05622257070556
C           -6.93559950146945        4.11432594688479       -2.27396287596403
H           -6.70788116633209        4.00550039556909        0.51643844071255
H           -8.38309469166727        3.86644765547430       -0.01778751871894
H           -7.57708331282139        2.47653138821490        0.70108972293784
H           -6.61453423767731        3.82027853982128       -3.27105295332607
H           -7.92449527618862        4.55930753147330       -2.35146276903883
H           -6.24796978344787        4.87060417023038       -1.90141149654466
N           -7.20402504255098       -0.50772942646346        0.25451092187687
H           -7.64062005737397       -0.55090494461636        2.01381517356382
C           -8.17221727606708       -1.56275032490883        0.05759961364919
H           -8.86882774403080       -1.33266792060924       -0.75784361247919
C           -7.49394692269993       -2.90686074551690       -0.23236570117535
C           -8.96183150141054       -1.69733014455747        1.36852261244186
H           -6.76552044350001       -3.12719615853350        0.54577288901575
H           -8.24512181843162       -3.69144749120392       -0.25032949732906
H           -6.98689777063031       -2.86786980130796       -1.19314172985313
O           -8.42239423821826       -1.02882991124131        2.37967025497680
O           -9.95275455351928       -2.36620535555733        1.46995674007919
