42
 energy: -62.486133515642 gnorm: 0.000479695733 xtb: 6.7.1 (edcfbbe)
N           -2.59310808756223       -2.05006532244079        1.43691815270289
H           -2.88885510245081       -1.91640756743978        2.39852523219483
H           -1.62180251680130       -2.33719783220588        1.44266094010178
H           -4.22446141662483       -2.55379902182616        0.61792714888782
C           -2.77419971885556       -0.82516403476832        0.66237287965289
H           -2.44628298127431        0.08568106452393        1.18177057691590
C           -2.02287569394362       -0.94371155997156       -0.66388402781167
C           -4.26988582313867       -0.70097024964969        0.37091447069075
H           -2.35119695285640       -1.83067905833047       -1.20137015955504
H           -2.21879631833617       -0.06711725474137       -1.27344946729701
H           -0.95170145488317       -1.01825644944796       -0.48812027614344
O           -4.89148981326152       -1.89155459407679        0.32755857434786
N           -4.71003640535962        0.44742556035715        0.14567357521040
H           -8.17704761754184        1.39130608872302       -1.18552369403074
C           -6.01362074781404        0.97333449961184       -0.13866298159061
H           -6.18632077858962        1.70446367275605        0.66826927408379
C           -5.89009437193307        1.74931342215674       -1.47532326176091
C           -7.24121974940750        0.07576618860990       -0.12253252547068
H           -4.82746825859289        1.79313120462611       -1.71971556331600
H           -6.37365999300834        1.18014970716183       -2.27430408435904
C           -6.43170852445276        3.18700607229331       -1.43267908394884
O           -8.34239226346590        0.53724401419827       -0.76845018986316
H           -7.38661582544978        3.21597427993903       -0.89013615799055
C           -5.45242833471807        4.10189139322852       -0.70070570805124
C           -6.67146207736251        3.70048826576428       -2.85176227871065
H           -4.52032151030354        4.17332490112132       -1.25628122121216
H           -5.86844996322565        5.10128885385178       -0.59567153496545
H           -5.22709706986408        3.71576226681046        0.28997103225501
H           -7.41194148536619        3.09464135375837       -3.37101220801834
H           -7.02791939145840        4.72757689871521       -2.82929272752217
H           -5.74611843579545        3.67225296169090       -3.42263490996135
N           -7.25343609222548       -0.99542483872304        0.52922933065735
H           -6.37758034373108       -2.32071481315022        1.51699039282003
C           -8.42096554261693       -1.83472550001701        0.63408704198514
H           -9.33054676119832       -1.25522271572706        0.83586723213118
C           -8.63039215673912       -2.66899608805583       -0.63557936378079
C           -8.16638540990870       -2.80342985257786        1.79663604379389
H           -7.71451385725688       -3.20394895304716       -0.87890049997734
H           -9.43212812382954       -3.38368370411812       -0.47128403799969
H           -8.89223274750910       -2.01813672313396       -1.46600218967555
O           -6.88365536297777       -2.93484281303765        2.10416717615749
O           -9.04377620375115       -3.40599946358493        2.35267462342382
