42
 energy: -62.486133512887 gnorm: 0.000479572902 xtb: 6.7.1 (edcfbbe)
N           -1.54955370015060       -2.14955354998061       -0.07289936338507
H           -1.42545788178265       -2.37688609532766        0.90714190649071
H           -0.67910835045750       -2.34713157508428       -0.55109319384848
H           -3.40218528195757       -2.51121378541222       -0.43899338720060
C           -1.93613886537126       -0.75084610689611       -0.24741257898041
H           -1.46334293632326       -0.06747538605812        0.47074821426405
C           -1.60307221851368       -0.28996807546163       -1.66623814514855
C           -3.44629008628550       -0.67215458906890       -0.06416246676747
H           -2.06858963086294       -0.95255357054047       -2.39266698058382
H           -1.97711502313984        0.71788624065708       -1.81593198104647
H           -0.52647200620356       -0.29547273413586       -1.82367343764269
O           -4.09068248510664       -1.83450770805505       -0.27061367258843
N           -3.96059562334920        0.44340089069822        0.19655116580390
H           -5.04058252252357       -1.09405281746231        1.92818775749839
C           -5.37529139423942        0.70884894061569        0.33870512660287
H           -5.45391280616426        1.33673674259041        1.23957255787750
C           -5.82224742572294        1.53298617104181       -0.87888938752236
C           -6.26264858324757       -0.49535158686926        0.57576004917453
H           -4.99286082034162        2.18857108489939       -1.15098309601433
H           -5.99121334080261        0.84013689759924       -1.70408644455970
C           -7.07881272719490        2.37791154987260       -0.63970101747894
O           -5.92611813045057       -1.30298021636003        1.60744145745398
H           -7.81186530724120        1.76695755385763       -0.10599334033740
C           -6.76451897824719        3.61475401982487        0.19935157244482
C           -7.67776592800386        2.80200461574352       -1.97967207886245
H           -6.05805855411105        4.25691398898114       -0.32262079728889
H           -7.67189330311102        4.18466869055095        0.38540818394898
H           -6.33416819645073        3.34432162875260        1.16028146428382
H           -7.96684437287931        1.93634357294792       -2.57043434738674
H           -8.56104266880338        3.41642920730394       -1.82259652122661
H           -6.95503825077135        3.38250489882256       -2.54950555624095
N           -7.34322441321429       -0.61912941931015       -0.05592297696756
H           -8.30354560971741       -0.25280003715723       -1.53534249852538
C           -8.26364565746961       -1.70266509852220        0.19638023912134
H           -7.74341055238564       -2.65272365465425        0.36992679623640
C           -9.16403515437083       -1.40195582112238        1.39980840824894
C           -9.15123369180268       -1.83775305450456       -1.05009071621060
H           -9.65827491179008       -0.44178440185868        1.26377015484389
H           -9.91701741695760       -2.17994811655535        1.48816469916202
H           -8.56842816328410       -1.36904051211698        2.30864434057636
O           -9.00673291487269       -0.83631660679274       -1.90990590309931
O           -9.91315538089262       -2.74913800092255       -1.21747913823968
