42
 energy: -62.486133511794 gnorm: 0.000479818557 xtb: 6.7.1 (edcfbbe)
N           -2.01409606906025       -1.56522852446354        1.36791732429303
H           -1.05443130529263       -1.88717014000311        1.32800161739695
H           -2.59433971524458       -2.36294609205455        1.61431922039140
H           -3.10385774743848       -0.18038819379494        2.12520702990107
C           -2.44133682309132       -1.02143955734642        0.08010461292686
H           -1.65105951134795       -0.34389745905420       -0.26768939878467
C           -2.71531559247002       -2.07096811974815       -0.99526244406662
C           -3.67402394996535       -0.16627291449147        0.34123707108089
H           -3.49160080747229       -2.75453867658595       -0.65856926451347
H           -3.06082480045842       -1.57976814108099       -1.89830333338384
H           -1.81282347638411       -2.63837149381928       -1.21416822518437
O           -3.82559781031683        0.23589608590216        1.61198839944269
N           -4.44348109207499        0.11612487530826       -0.61302825776966
H           -6.61951299403319        0.26545895850495       -2.51736701810410
C           -5.62993213302769        0.92543259414741       -0.39138957016933
H           -5.69466290435845        1.25779921367317        0.65101817741932
C           -5.60403819457018        2.13175958734214       -1.33465204438751
C           -6.77048218358228       -0.03679405506288       -0.64169988497043
H           -4.78758876887799        2.78119285058695       -1.01131791149423
H           -5.34977017987939        1.79552581354627       -2.34526026041632
C           -6.90877985315371        2.93817521678639       -1.36030246106819
O           -7.16048827324890       -0.25504210111918       -1.90996390147537
H           -7.73682446939735        2.28283790188585       -1.65362010162906
C           -7.23129013359194        3.52422842983471        0.01237623790206
C           -6.79229764824569        4.05636642561560       -2.39565274789725
H           -6.39794228832077        4.12120680445496        0.37661601914946
H           -8.10872036340094        4.16359897989114       -0.05124176676157
H           -7.43845055776856        2.73830288430606        0.73371785632009
H           -6.58409430170809        3.65327970956006       -3.38468684984437
H           -7.71794669101646        4.62414533925231       -2.44744278462562
H           -5.98759553734206        4.73729307356288       -2.12691699376717
N           -7.22192011329515       -0.68110175359665        0.34205187426316
H           -7.35532222259052       -0.89598471850809        2.12834810170823
C           -8.22582888355397       -1.71114795064594        0.20077478085086
H           -9.07194749734486       -1.37259277215639       -0.41006854717810
C           -7.65211530191675       -2.99185698911183       -0.41595838034136
C           -8.73483972986126       -2.03942556111859        1.61322960441652
H           -6.77877065514081       -3.31321571378872        0.14844716522777
H           -8.40552856680437       -3.77360563336019       -0.38197717496800
H           -7.36097552462130       -2.81084355117795       -1.44715932684783
O           -8.03478449178493       -1.45437972998170        2.57690466055259
O           -9.66095209297733       -2.77367070873239        1.82037400480526
