42
 energy: -62.486133509429 gnorm: 0.000480804572 xtb: 6.7.1 (edcfbbe)
N           -1.13261832624189       -0.86669855987862       -1.39672805450116
H           -0.24658230189738       -1.34712258347626       -1.29918460661761
H           -0.93114040480637        0.10372540763705       -1.62242636466896
H           -2.77897260993078       -1.13658279385483       -2.26315781454494
C           -1.90955701250662       -0.93581475261103       -0.15849390299765
H           -1.86961313580420       -1.97494127944440        0.19359999310090
C           -1.42705143893817       -0.00857284077681        0.95247444696860
C           -3.36298405919808       -0.66036500213311       -0.52702073614199
H           -1.42811766239277        1.02290983890974        0.60593190141065
H           -2.09846514953508       -0.08428832887620        1.80071726314732
H           -0.41945046528467       -0.27813831661274        1.26217971675514
O           -3.63864239565540       -0.92508920994607       -1.83867553258528
N           -4.14964757305631       -0.24364131397474        0.34666375946576
H           -5.20370179652567       -1.61358629988350       -1.55510701560092
C           -5.54078893723535        0.12216748824917        0.25539512726274
H           -5.86500712025943        0.26909725061429        1.28943415536678
C           -5.59431503927276        1.48014962115228       -0.49287387417429
C           -6.51895861272161       -0.84410635660314       -0.38636688724707
H           -4.82179766409835        2.11315337747177       -0.04879045061946
H           -5.31606448806311        1.29558149345700       -1.53437623972453
C           -6.93040279114949        2.22360755165893       -0.45470863563115
O           -6.11268136839897       -1.78116130493589       -1.25021686134121
H           -7.70973504047732        1.56880572294297       -0.85273825089325
C           -7.31153898050839        2.63589354257654        0.96422146053081
C           -6.84007133628837        3.45960352935066       -1.34958561165428
H           -6.54595402725119        3.28150195942753        1.39018113718917
H           -8.25279451928089        3.17941348975295        0.95376761742014
H           -7.42936919977188        1.76842086482376        1.60718724781739
H           -6.59973944205064        3.18130000196758       -2.37327889597651
H           -7.78909170532310        3.98938556981592       -1.35484403911786
H           -6.07013676961586        4.13829194953548       -0.98745091678095
N           -7.73892306705159       -0.67657900425186       -0.09567057280780
H           -9.08120874836800        0.34337063008915        0.60333904726179
C           -8.77155046551672       -1.49434025513475       -0.69063919235560
H           -8.59906490212268       -1.65793126587954       -1.76268232711634
C           -8.88457855457191       -2.85760723091320        0.00167708485093
C          -10.10295843850134       -0.75351720655519       -0.50645961688735
H           -9.01522344240315       -2.71987122387765        1.07324358775930
H           -9.74192087444973       -3.39278396333331       -0.39687547332670
H           -7.98146615219125       -3.43652227669056       -0.17420211691806
O          -10.02594155632021        0.27532005391652        0.32974477023213
O          -11.11829548293521       -1.08455083231542       -1.05338086587615
