42
 energy: -62.486133518579 gnorm: 0.000478550968 xtb: 6.7.1 (edcfbbe)
N           -1.42293018468339       -0.56407925632650        1.12333161142789
H           -0.56795485016150       -1.07501344185956        0.93692251772521
H           -1.72169502445212       -0.80779689333506        2.06397560749315
H           -2.18298133349709        1.23633256658902        0.89454552860816
C           -2.46700832000732       -0.93848972336108        0.16744583706694
H           -2.03101566660654       -0.83484812804029       -0.83586931398096
C           -3.01807957386519       -2.35132068372933        0.33333045208856
C           -3.55812235049731        0.11196277383133        0.27705249642815
H           -3.49189974882401       -2.46083404137662        1.30530648657252
H           -3.76366563577769       -2.54386500855328       -0.42933044220855
H           -2.21641858708504       -3.08176463761882        0.24328540186854
O           -3.12207438794151        1.33631724902109        0.64466599831048
N           -4.75162742404425       -0.18881760000265        0.03168391273754
H           -7.96913463605643        1.72671549838376        0.74073739625581
C           -5.79358929922765        0.80842826855643        0.07859036536092
H           -5.65438110748536        1.49209065502634        0.93125255834355
C           -5.74388122541776        1.61228268073680       -1.24038338928973
C           -7.10664545850462        0.07874428315056        0.23078339591797
H           -4.73922179221394        2.03464287398821       -1.31384356976385
H           -5.86511380384508        0.89261271125921       -2.05298071063900
C           -6.76326015173446        2.74351027065390       -1.40802384379918
O           -8.19577075725647        0.80050650559403        0.59270099793398
H           -7.77808236622657        2.33875223882346       -1.32828116264940
C           -6.56804118693192        3.84952118678917       -0.37078366113175
C           -6.61647034436989        3.33378020310359       -2.81101482755577
H           -5.57013454425145        4.27286693906815       -0.46316539381621
H           -7.29297731676266        4.64552282987364       -0.52733980646416
H           -6.68177512959144        3.48925482350861        0.65030920075956
H           -6.78333161392138        2.57147913805771       -3.56815922506994
H           -7.33769474715030        4.13312100168830       -2.96481043521829
H           -5.61746464347510        3.74181900147880       -2.94843771232881
N           -7.13091010990642       -1.16497351560080        0.07438290166637
H           -6.12884779031690       -2.62273402970844        0.13263044623600
C           -8.29811551690849       -1.98718153597331        0.24360020182929
H           -8.91291754029175       -1.67403127725664        1.09795384047237
C           -9.16863575241173       -1.99890668971176       -1.01682568436248
C           -7.77875517696443       -3.41491861100733        0.49891476508090
H           -8.55992072617028       -2.24977524415571       -1.88309818144670
H           -9.95263285698222       -2.74254565645537       -0.90402291455907
H           -9.61661180941747       -1.01984531585152       -1.16919088201233
O           -6.46727821618976       -3.53056489440836        0.35061231808615
O           -8.49912254902954       -4.32998319261447        0.79048180357510
