42
 energy: -62.486133518897 gnorm: 0.000478725703 xtb: 6.7.1 (edcfbbe)
N           -2.37095227948793       -2.44283667571258        0.58460513389279
H           -2.69249324562135       -2.62001936931183        1.53076797532417
H           -1.42224815296631       -2.79047178805065        0.50798895949958
H           -4.03157178538049       -2.49814061157483       -0.42058397513765
C           -2.42602944542805       -1.01388843062478        0.28238498629352
H           -2.07399982727985       -0.36875324839550        1.09857336904066
C           -1.60767124044649       -0.72214946356736       -0.97615608986675
C           -3.88176483526452       -0.67640499250201        0.00035028694912
H           -1.95049718630692       -1.34610157357366       -1.79917829665822
H           -1.71964892460062        0.32280362927661       -1.24959195221381
H           -0.55428805942369       -0.92800210050263       -0.79887131965563
O           -4.59741620869061       -1.70237753756302       -0.49443219710527
N           -4.28483759641642        0.49086469425653        0.21867500628861
H           -6.14744289605178       -0.11831649579485       -2.18079566166432
C           -5.62254491883303        0.97962739790443       -0.02973060859415
H           -5.92154435971437        1.44634843817655        0.91584306620663
C           -5.53785055893383        2.06431879297597       -1.11515497800139
C           -6.65748767770446       -0.08353311303914       -0.33617126697764
H           -4.82540527761592        2.81227727302748       -0.76336788670021
H           -5.11422343906249        1.63370885865895       -2.02954603625678
C           -6.87563837025132        2.74106764944188       -1.43764087974598
O           -6.81726149923113       -0.50572762842537       -1.60477960294225
H           -7.59152075578596        1.98502001355550       -1.77926817890055
C           -7.46556986647129        3.43658112555204       -0.21330210354155
C           -6.66863252050577        3.75034447670768       -2.56662242583163
H           -6.74361612317251        4.12712389456710        0.21703107856441
H           -8.35198615986381        3.99944998237985       -0.49610651982505
H           -7.75493231652135        2.71443706467900        0.54540751665860
H           -6.26226981082053        3.26738339561586       -3.45306103707492
H           -7.61250420186231        4.21718289329013       -2.83669738349071
H           -5.97762957413975        4.53011319676498       -2.25375674882882
N           -7.34831807630115       -0.52316590592696        0.62292483353627
H           -7.96647044173740       -0.37123152915487        2.31565989009281
C           -8.34738295982641       -1.55047552346566        0.42693456470588
H           -8.95097158834901       -1.36728512647033       -0.47080647705484
C           -7.70984790624627       -2.94030861525999        0.31978215165289
C           -9.26435600577033       -1.53259332076829        1.65689692805241
H           -7.09743194193424       -3.13378914322060        1.19825017390714
H           -8.49157820309133       -3.69168357304784        0.25556426499749
H           -7.08145350698548       -2.98663399981963       -0.56555858338709
O           -8.79865148673978       -0.78233970535857        2.64964435735548
O          -10.28824997978438       -2.15444886301943        1.72283001188128
