42
 energy: -62.486133518768 gnorm: 0.000479335261 xtb: 6.7.1 (edcfbbe)
N           -1.87903772297945       -1.96405311761804        1.07235928152468
H           -1.77649624855232       -1.55420246544459        1.99492213896701
H           -1.01907840133830       -2.45187751193805        0.85110556751612
H           -3.80885927969934       -2.25414332722105        1.01971068527540
C           -2.16213992917108       -0.93183994564897        0.07869681479667
H           -1.56078246339737       -0.01955509649989        0.19494788817229
C           -1.94714315401389       -1.49597825802119       -1.32754395396794
C           -3.62829117817827       -0.56244410541208        0.22449406675158
H           -2.57313011320775       -2.37270117510051       -1.48111835811033
H           -2.19945312685667       -0.74102235966961       -2.06656413687672
H           -0.90687697182711       -1.78370504801715       -1.46406957317086
O           -4.40227986764417       -1.52400125775875        0.75093414282507
N           -4.02103623072559        0.56766104775112       -0.16547874414976
H           -5.22715200508348       -0.54398966808784       -1.97374170873918
C           -5.41981270782192        0.94807026359599       -0.11470984176566
H           -5.65743738823523        1.26800343714782        0.90495573112282
C           -5.61668059812760        2.12167113637291       -1.08757410590300
C           -6.34568702870929       -0.19082307486274       -0.46949611094628
H           -4.90180437264711        2.89791502132195       -0.81125003918515
H           -5.35683046442358        1.78550960277156       -2.09542578718153
C           -7.03619281622040        2.69741596379251       -1.10191146836167
O           -6.04572112442106       -0.88374104061194       -1.58823284025382
H           -7.74337756409564        1.88497912814217       -1.30176080184551
C           -7.40221101496083        3.33715914562700        0.23457097994529
C           -7.15257244349255        3.72926238141275       -2.22308791831794
H           -6.68635489202260        4.11591357729662        0.49050073869216
H           -8.39088124803754        3.78582490859270        0.17508365695832
H           -7.41723882181639        2.59927283489933        1.03149440439965
H           -6.92636979302299        3.28186115135615       -3.18852353442587
H           -8.16068962327870        4.13403466475242       -2.26333684899508
H           -6.45934016276547        4.55066756977167       -2.05407048020502
N           -7.36351581346233       -0.41324014887160        0.23606642867783
H           -8.56605941429819        0.14541112032973        1.46607698449474
C           -8.29159080476941       -1.47414453538156       -0.08748385447280
H           -8.50618145446457       -1.51763433572183       -1.16306347206780
C           -7.75956679944653       -2.83746191448253        0.36706830381270
C           -9.59623014246094       -1.18346300050725        0.66701075081470
H           -7.49917403209094       -2.79808571920613        1.42265005552595
H           -8.52506619254179       -3.59276356530633        0.21279081948571
H           -6.87153354141383       -3.09415788870078       -0.20439782761735
O           -9.48814672185941       -0.19453739351924        1.54645719456069
O          -10.60816757030708       -1.80309282522272        0.48988002231705
