42
 energy: -62.486133506660 gnorm: 0.000480687451 xtb: 6.7.1 (edcfbbe)
N           -0.86795205132620       -0.71577792222154        0.33642717434705
H           -0.54821873509056        0.21098629419480        0.59885466523640
H           -0.06247736044957       -1.24611700009431        0.02608828026544
H           -2.35887216978930       -0.98259759394163        1.50089750599176
C           -1.87590802204335       -0.63653630770243       -0.72091629774410
H           -1.67827573401323        0.14455693349604       -1.46704500965964
C           -1.99735641021653       -1.98488605086348       -1.43230454394357
C           -3.19974893781871       -0.32732225417018       -0.04827699671700
H           -2.18892464650709       -2.77664882736571       -0.71072864908618
H           -2.81671459824468       -1.94678734690203       -2.14383918058082
H           -1.07778319337858       -2.21396800706509       -1.96645889550033
O           -3.26948913287727       -0.71610234230355        1.25253218898591
N           -4.13413378295114        0.18899408257881       -0.70382333289301
H           -4.95076519857374       -1.70049810213696        0.71373233329673
C           -5.41218487563631        0.52042110346452       -0.10619674976441
H           -5.28307950390100        0.75541918014855        0.96448734830634
C           -5.98349191638428        1.72879524228902       -0.85081249799290
C           -6.32306512142076       -0.68909869360401       -0.16556170203803
H           -5.16242525667096        2.42496607205457       -1.03087199674513
H           -6.34250120342783        1.38278654129658       -1.81949926043474
C           -7.10762676736298        2.44871260746592       -0.09694503906339
O           -5.82920344484380       -1.84095938290006        0.33068016504680
H           -7.77489826485509        1.69600374860627        0.33217617161454
C           -6.55079490310902        3.31273777646542        1.03346492128475
C           -7.90745045949345        3.31845893752909       -1.06501612738933
H           -5.90284421645218        4.08948846327062        0.63193137289036
H           -7.36125546947984        3.79211785499693        1.57763138873114
H           -5.97602804822173        2.71964174887774        1.74071305108667
H           -8.36114026329771        2.71577479546982       -1.84765231315115
H           -8.69990809237272        3.84416613639261       -0.53777026212592
H           -7.25902291338987        4.05706219673296       -1.53179719428765
N           -7.49843241418574       -0.57492902467611       -0.59932473447555
H           -8.69026834091409        0.34542423175554       -1.59625542954103
C           -8.41876067852234       -1.68773979719424       -0.63985155703203
H           -7.93303686972893       -2.61315283320803       -0.97335122883161
C           -9.06542710330123       -1.93247548745643        0.72816781133086
C           -9.52654093182517       -1.31898437269667       -1.63921762558234
H           -9.51992065238032       -1.01385900035569        1.09427797286176
H           -9.83339118825463       -2.69449218963824        0.63013848804707
H           -8.31401004408891       -2.26530570908698        1.43986034911973
O           -9.48263786889298       -0.05186124565263       -2.03116453839198
O          -10.36022447475807       -2.09844031748434       -2.00844498845967
