42
 energy: -62.486133504426 gnorm: 0.000481324800 xtb: 6.7.1 (edcfbbe)
N           -0.82293917893243       -0.52474086571897        0.37723301908246
H            0.11165961622720       -0.50034587985221       -0.01114135834851
H           -0.90695721367831       -1.38197381944692        0.91686447940446
H           -2.02668909158324        0.61979249674381        1.33582292729000
C           -1.83455811452613       -0.49567318490835       -0.67795408302997
H           -1.53166763443309        0.26845837942907       -1.40457370391725
C           -2.03932830217545       -1.82353031223539       -1.40556686456010
C           -3.12903063372376        0.00024567701823       -0.04753659426052
H           -2.28039583329683       -2.61162822233905       -0.69348266526570
H           -2.86040865266120       -1.72590710782255       -2.10809670385091
H           -1.13715407063412       -2.10480338876862       -1.94447977535659
O           -2.97976224086287        0.65601191302191        1.11406064963381
N           -4.22250980261161       -0.19627089927159       -0.64025492499942
H           -5.00057169778101       -2.03650316136920        0.04074225699019
C           -5.47299429535968        0.27791187506641       -0.07914145683968
H           -5.36029102352795        0.50259441110575        0.99378548541616
C           -5.93439507328435        1.54210954753877       -0.81466047076551
C           -6.46265590694716       -0.86150827662531       -0.20172024579205
H           -5.05910870669465        2.17130765030070       -0.98998045793227
H           -6.33066881696318        1.24080112380704       -1.78448985908359
C           -6.98556602865182        2.34463785105156       -0.03828062626777
O           -5.96846801799202       -2.09065766499662        0.05042104047968
H           -7.69360909751836        1.64154988736906        0.40922596848816
C           -6.33587707183780        3.16579376271879        1.07422500599452
C           -7.74460014827915        3.26963370860578       -0.98777082604417
H           -5.67555119676803        3.91994704580845        0.65031799212694
H           -7.09569123557001        3.67081479010426        1.66603304284711
H           -5.74989874387042        2.53735991137492        1.74028799134702
H           -8.26046550848947        2.70242626118647       -1.75836937341401
H           -8.48332685070392        3.85009759790453       -0.44033151564565
H           -7.05720824036203        3.96094724595009       -1.47121238508964
N           -7.65145188247045       -0.64881859467645       -0.55355733427266
H           -8.85129128660256        0.43153345926456       -1.37154813527147
C           -8.60971242987295       -1.71946932253763       -0.69921993389721
H           -8.16592060098140       -2.60525903486236       -1.17182110572910
C           -9.20913058646531       -2.12881535535911        0.65042045142833
C           -9.74153821952497       -1.19169561918360       -1.59411372693295
H           -9.62138045073199       -1.25683277437854        1.15435272165916
H          -10.00217658638631       -2.85273671482015        0.48575082557082
H           -8.43922497483483       -2.57076184757869        1.27803555635422
O           -9.66910092853238        0.11369147611942       -1.82332285552375
O          -10.61457450208686       -1.89175987347268       -2.02601740235745
