42
 energy: -62.486133508091 gnorm: 0.000480540576 xtb: 6.7.1 (edcfbbe)
N           -0.87204627193481       -0.37291249013813       -0.29114383456905
H           -0.07939685396827       -0.72370267190745       -0.81538973053896
H           -0.79056442005322       -0.72822579047693        0.65780623343112
H           -1.85009432390263        1.29053322624317       -0.00314953276276
C           -2.13032631478903       -0.82865262586146       -0.88275244141399
H           -2.07309891334483       -0.62508372646210       -1.96014319454437
C           -2.44715273520157       -2.30620165263507       -0.66903490709839
C           -3.23488034877686        0.06450242256059       -0.33967022796603
H           -2.45872129344193       -2.53756204159104        0.39427257955057
H           -3.42976815971633       -2.51893291920092       -1.07578664261064
H           -1.70474491037608       -2.93191765855314       -1.16028940760785
O           -2.82515805440013        1.28364786038856        0.06486570818657
N           -4.41571219437746       -0.35994165904883       -0.30237746402238
H           -6.58299656727366       -0.33277703642444        2.16932811455089
C           -5.50945915679306        0.47867671431719        0.13667998590471
H           -5.28058997793468        0.91063469291633        1.12394164058945
C           -5.77775272098226        1.61469690562362       -0.86380265341866
C           -6.72468022101099       -0.41536445606879        0.22654860037778
H           -4.87425987079044        2.22078683651379       -0.94367751524414
H           -5.97325487584243        1.14135689386544       -1.82635433041985
C           -6.96310966778942        2.50938769582457       -0.48864724566151
O           -7.18226652084370       -0.69209121368851        1.50423388835340
H           -7.84372848098128        1.87878736075359       -0.32477847686590
C           -6.69174410456428        3.31994604456707        0.77757577205239
C           -7.26516972840005        3.45200561937660       -1.65196684617235
H           -5.78072207238812        3.90419088744763        0.66453167780994
H           -7.51642468301629        4.00264090436181        0.96910895046948
H           -6.58277186517262        2.67957874757837        1.64987264549006
H           -7.49760932773463        2.88511278411301       -2.54966179134273
H           -8.11703413785121        4.08584221071849       -1.41759177329287
H           -6.40728629492178        4.08937856646695       -1.85656577825120
N           -7.24238447679379       -0.85876788071382       -0.81868059293923
H           -8.95325323625495       -0.57122762303979        1.09001889988190
C           -8.36550490821193       -1.75188549039855       -0.92760789270198
H           -8.40353104893070       -2.04158340963597       -1.98404810221356
C           -8.26479486830990       -3.01684454404553       -0.06407319091629
C           -9.69488196473910       -1.04659876126676       -0.61877831547626
H           -8.30440265014538       -2.78187280574603        0.99723720297630
H           -9.08479155919465       -3.68775988008019       -0.30799236931248
H           -7.32187920404471       -3.51717910096952       -0.27234135479746
O           -9.77507257857766       -0.46077394089141        0.57663824420515
O          -10.61316969403173       -1.03587280196862       -1.38741946301668
