42
 energy: -62.486133511608 gnorm: 0.000480745136 xtb: 6.7.1 (edcfbbe)
N           -0.94615336176282       -0.46399600541133       -0.64921099193816
H           -0.23169635574162       -0.86951386861377       -1.24184101478712
H           -0.75107082586076       -0.75381357734171        0.30559704228659
H           -1.85830264611173        1.22829393845581       -0.39085695693685
C           -2.27612446839884       -0.93134638585045       -1.04365698176458
H           -2.35778680745869       -0.79087159950136       -2.12984422595869
C           -2.57898245897486       -2.38754379170271       -0.70434005679722
C           -3.29389142179640        0.01498858643614       -0.42059672618188
H           -2.45090751469555       -2.55836976696961        0.36276944206721
H           -3.61052899299838       -2.60008892134608       -0.96341204291835
H           -1.91697520690013       -3.05419861092834       -1.25334287874645
O           -2.81455858076766        1.25637474591615       -0.18618126465656
N           -4.44647765132514       -0.40991998212048       -0.17831056334589
H           -7.48857780666961        0.26797208470131        1.78789249230402
C           -5.54274264806367        0.37228831473342        0.32700370096302
H           -5.39892930897917        0.53381495078088        1.40629344368895
C           -5.70444698602381        1.73127636807890       -0.39071504428638
C           -6.79976283117565       -0.43664522732741        0.09950868429127
H           -4.77916023870511        2.29382428397637       -0.26631372996764
H           -5.82732332300992        1.50598732411113       -1.45225294398254
C           -6.87614892341243        2.59716115581707        0.08434356385619
O           -7.78302696652482       -0.30833205788306        1.07256118759918
H           -7.80231642161989        2.01269452000282        0.06144183643278
C           -6.64962691875686        3.13093109199597        1.49881509989858
C           -7.05110261614912        3.76888834626171       -0.88104542253760
H           -5.74993658499557        3.74209083190789        1.52585587306508
H           -7.49084724050603        3.74666826606348        1.80949887665271
H           -6.53238435162937        2.33163159585554        2.22881668268598
H           -7.26835521122906        3.40764742796098       -1.88317504015471
H           -7.87260918818806        4.40632416291815       -0.56181160377299
H           -6.14386202951898        4.36831299129817       -0.91902796565734
N           -6.90644836002171       -1.15056735369457       -0.91667456642380
H           -9.19227761951201       -0.29352194374909       -0.04979145865491
C           -8.01366257022070       -1.99096206750271       -1.28885487302696
H           -7.66746651307452       -2.55577634969108       -2.16226414072583
C           -8.45275460627453       -2.97676153819515       -0.19682047661735
C           -9.24059873981840       -1.18807610668283       -1.74836321708504
H           -8.85463076093172       -2.45823418600362        0.67092723515374
H           -9.21403956927853       -3.64339904312419       -0.59442866852048
H           -7.59476968582071       -3.56570181224229        0.11901583069775
O           -9.71590569293796       -0.30141041220676       -0.87369951130551
O           -9.75902124091536       -1.36014659043982       -2.81457358828540
