42
 energy: -62.486133508313 gnorm: 0.000480584970 xtb: 6.7.1 (edcfbbe)
N           -2.75695123235321       -2.59678602193761        0.66440449937244
H           -3.18410084528692       -2.76899131169357        1.56903141618529
H           -1.82968859097057       -3.00534654697860        0.67587389277294
H           -4.33091569629203       -2.50482786359840       -0.48759170359240
C           -2.68678933125481       -1.16154370068576        0.39647011062723
H           -2.35255178616633       -0.56131215174762        1.25364892221297
C           -1.75502524010879       -0.90509558235624       -0.78871575949630
C           -4.09009304160763       -0.71488048377610        0.01946096888806
H           -2.07728674131608       -1.48513441761742       -1.65100997592822
H           -1.77141874244194        0.15041953316536       -1.04291979214814
H           -0.73586187858423       -1.19101402352053       -0.53745686109915
O           -4.83164225957178       -1.66779562158404       -0.56977965897859
N           -4.42150650213109        0.47711596592437        0.22820590955598
H           -6.75591284454431        0.31256699966479       -2.21956050703476
C           -5.72092193765616        1.03958317557319       -0.07075439734027
H           -6.00018205331626        1.56853597845527        0.84877894569575
C           -5.54322526477395        2.06756061475962       -1.19714141800826
C           -6.80966776663823        0.01209098349458       -0.32666117628655
H           -4.68986411911732        2.69044513104579       -0.92243870646226
H           -5.26064040706533        1.54993374854473       -2.12138693505754
C           -6.76644993735462        2.96314222119813       -1.43929339665449
O           -7.24719254659162       -0.21572985210528       -1.57841530341185
H           -7.67024595263681        2.34581891839570       -1.49788246794918
C           -6.95196998589761        3.96503081421601       -0.30218575512583
C           -6.60201864327156        3.70645246489227       -2.76491824283603
H           -6.06732442752735        4.58956992793551       -0.19896944858306
H           -7.80467492814240        4.60865256007000       -0.50534585873748
H           -7.13012607582622        3.45890821271903        0.64275284253934
H           -6.51757484433949        3.01226667327810       -3.59905040803572
H           -7.45796328833789        4.35149851183560       -2.94712091816573
H           -5.70678466591433        4.32412490816315       -2.74166873003707
N           -7.25262556849469       -0.61660054188915        0.67357802135140
H           -7.42854550666520       -0.76529915664840        2.45494510295691
C           -8.27997802211055       -1.62603468874689        0.55173668206203
H           -9.08881172841500       -1.30188966955435       -0.11532056750572
C           -7.72538545513272       -2.96018082496786        0.04023311679182
C           -8.85279400946292       -1.85460424677182        1.95760212542506
H           -6.92323879478437       -3.30096078301107        0.69139022363695
H           -8.52107769210283       -3.69971394479229        0.03632588337514
H           -7.33477484195534       -2.83467099985744       -0.96566457835353
O           -8.14509405656260       -1.26575153655132        2.91519940869542
O           -9.82729405440718       -2.52157899729710        2.17054943631698
