42
 energy: -62.486133509064 gnorm: 0.000479983084 xtb: 6.7.1 (edcfbbe)
N           -1.22922296901981       -0.83763824311440       -0.73590088978235
H           -0.55713230763247       -1.58936913280635       -0.83069913265573
H           -0.82842669051352       -0.14659174742706       -0.10683964500284
H           -2.34231291830552        0.24828027527966       -1.83605546687113
C           -2.49214991530342       -1.33091809873241       -0.18587732861338
H           -2.75954451085309       -2.23528956516603       -0.74754525261208
C           -2.45863742884247       -1.65636857601909        1.30353094419436
C           -3.55899101495659       -0.29012417604902       -0.51050496664772
H           -2.15222621765138       -0.77987084736281        1.87074973998339
H           -3.45186295725998       -1.94296441002918        1.63011288010208
H           -1.76181930112655       -2.46854250645079        1.50055905338066
O           -3.26360619027353        0.47158885706234       -1.58809915198038
N           -4.60300403634158       -0.26104423089068        0.18175255926519
H           -6.04279398306503        0.16443161115292       -2.33106147804408
C           -5.72677592283132        0.63479247313812        0.02383798600177
H           -6.05407993263476        0.82774041445185        1.05183482094561
C           -5.50768129043635        1.97008698381060       -0.69705045501394
C           -6.80294630519260       -0.21823333416054       -0.61712980943972
H           -4.74628427099263        2.52709863485872       -0.14624014311168
H           -5.11136641247677        1.80909063845122       -1.70265157686987
C           -6.78728917288238        2.81172423859243       -0.79444483869085
O           -6.76644082508942       -0.35641683387347       -1.95757420357735
H           -7.57136587844366        2.21221405662209       -1.27194056596500
C           -7.29085981380179        3.24902361641745        0.57909464374721
C           -6.51972271746336        4.03779318610838       -1.66710094228230
H           -6.50676777382474        3.77214026852781        1.12264479058039
H           -8.13715593244192        3.92279471727909        0.46765906331108
H           -7.61686884622450        2.39667812046270        1.16894285519636
H           -6.18647696544994        3.74486007908321       -2.66065984365150
H           -7.42283526629115        4.63365494771948       -1.77336484004438
H           -5.74929172080650        4.66037955331876       -1.21700233184352
N           -7.61357609058546       -0.83618033089281        0.11993999753767
H           -8.40669995641890       -1.07612185861243        1.73590695582213
C           -8.60691399229829       -1.73648792309280       -0.42160391348796
H           -9.10734352757770       -1.31318023561693       -1.30156970459342
C           -7.99446433185716       -3.08879773279030       -0.80378335654074
C           -9.65206856925002       -1.97323588594356        0.67864234419823
H           -7.44511781332868       -3.49757295128253        0.04179839919881
H           -8.78848686026429       -3.77612139417516       -1.08195738552571
H           -7.31309621223227       -2.96335434694572       -1.64135609706291
O           -9.28115161303988       -1.51234694801620        1.86669089676726
O          -10.69133279673401       -2.53962715586817        0.48325054536315
