42
 energy: -62.486133515069 gnorm: 0.000479754969 xtb: 6.7.1 (edcfbbe)
N           -2.26393428512803       -1.64158273202492        1.58366657158870
H           -2.06754091003725       -0.94886345787167        2.29865416400269
H           -1.42667212209509       -2.19530962921744        1.44607003412592
H           -4.15620125828246       -1.93472022717087        1.78061975104310
C           -2.67413253777705       -0.99872347356016        0.33733154684103
H           -2.07345366578012       -0.11982702284253        0.06671106647481
C           -2.62026933339606       -2.01687293882990       -0.80201352943500
C           -4.12540328890058       -0.56122509188680        0.50836408957560
H           -3.22888349818288       -2.88434718016177       -0.55573346424859
H           -2.99891522500658       -1.56627152632471       -1.71425837567187
H           -1.59652792061802       -2.34552264691041       -0.97028203157525
O           -4.80949863934716       -1.32444362756438        1.37479070758553
N           -4.49901150945998        0.45048619791418       -0.12807368831611
H           -7.52584611073124        0.97596391920124       -2.04973484443458
C           -5.80937919678829        1.04220930627176       -0.26348390094433
H           -6.02938711468376        1.56417428990829        0.68277890293093
C           -5.68987040916236        2.09299934986091       -1.37840675069079
C           -6.95918849492585        0.06214988396287       -0.44715561630494
H           -4.69060113960194        2.52124453846358       -1.28925386871866
H           -5.71872101311865        1.59877510258934       -2.35484649711721
C           -6.72867997855236        3.22391498140622       -1.29738179710962
O           -7.77156039783214        0.20734564002957       -1.52079913323421
H           -7.70372499824300        2.81699498920095       -1.00159143060253
C           -6.31996199694191        4.25527366890916       -0.24726793019134
C           -6.87882513801924        3.90213422222447       -2.65892940717658
H           -5.38536102123991        4.73353104577713       -0.53198406376291
H           -7.08396266994728        5.02338117293051       -0.15176252023745
H           -6.18377361454705        3.78975812182411        0.72568343658130
H           -7.23508578790578        3.20409597918562       -3.41487649012241
H           -7.58835057302794        4.72391823967153       -2.59783643012197
H           -5.92157134796670        4.30118356463716       -2.98724402722609
N           -7.12323431060010       -0.86646300723490        0.38200197396640
H           -6.65235229499511       -1.73937810455072        1.97751588521121
C           -8.18345604430406       -1.83474763890770        0.26204954810390
H           -9.14018202919864       -1.36994409120751       -0.00907609519700
C           -7.84590010710137       -2.91326801959924       -0.77491695819132
C           -8.32698792472560       -2.52065962278641        1.62796372400004
H           -6.88040618397163       -3.35884054717688       -0.54305146278867
H           -8.61043264971885       -3.68484311647803       -0.75415866545915
H           -7.80390507578409       -2.47234408520948       -1.76778498093568
O           -7.29279769893045       -2.33625497122922        2.43424242070935
O           -9.28224172280769       -3.18710743071286        1.92239548931239
