42
 energy: -62.486133512954 gnorm: 0.000479393026 xtb: 6.7.1 (edcfbbe)
N           -0.74245843610579       -0.20838094572944       -0.50753953045014
H            0.03399447679260       -0.71144253675037       -0.91874496360395
H           -0.52816950913935       -0.06472973449694        0.47552611800863
H           -1.82274072405271        1.31672387067622       -0.82462478823267
C           -1.98751485193522       -0.96292988535391       -0.63792796154488
H           -2.03744856009225       -1.32834511133183       -1.67234369940024
C           -2.11739399462953       -2.14417648283754        0.32087788290251
C           -3.13809514679363        0.03048273403877       -0.46625923696502
H           -2.03933988662534       -1.79896961812063        1.34975453800082
H           -3.08613780382574       -2.61523007850855        0.19417136855162
H           -1.33365741647184       -2.87497359621397        0.13160044226924
O           -2.78999728272826        1.31071571365221       -0.66295045945135
N           -4.26871276641237       -0.42278798413174       -0.16108412786900
H           -5.25400404735325       -1.29381983731025       -1.73398175957437
C           -5.51131893584034        0.29747667078966       -0.01522761742202
H           -5.69683450376336        0.40316536843198        1.05817849999418
C           -5.59693584986418        1.67941751214977       -0.69152718193218
C           -6.58263253624466       -0.60904755812533       -0.59169003750769
H           -4.80783728358177        2.31126909492398       -0.28371846489987
H           -5.40032655355948        1.55049472772675       -1.75992684908689
C           -6.94240340375731        2.39078543229219       -0.51319550789766
O           -6.21910671267122       -1.35655651990678       -1.64742248728519
H           -7.74108253932074        1.74493758318472       -0.89002714709023
C           -7.22584931680566        2.71077647060974        0.95229075167360
C           -6.93948369712075        3.68015803994091       -1.33369891082977
H           -6.43611938852380        3.33734272521041        1.36248881879652
H           -8.16861917149495        3.24467309741831        1.04133925802112
H           -7.29574910894074        1.80445532221052        1.54733699893691
H           -6.77066874915280        3.46907326697522       -2.38725647181188
H           -7.89388537764922        4.19162289184919       -1.23702971069623
H           -6.15416325771199        4.34916259738964       -0.98753690645672
N           -7.72833317405546       -0.63403967878944       -0.06916729897250
H           -9.01184951954037        0.27001310888302        0.85626500205432
C           -8.79084669221945       -1.45719309039173       -0.60349088148957
H           -8.76945432906154       -1.50281964465608       -1.69973726588249
C           -8.71755084380131       -2.88299265942427       -0.04673630296427
C          -10.12208680608155       -0.83103209637081       -0.16200612708021
H           -8.69137322627410       -2.85496671867847        1.04060614501627
H           -9.59281239224092       -3.43982552167940       -0.36905580988407
H           -7.81920123001139       -3.37576511568308       -0.41005601109575
O           -9.98086520873113        0.15163817648852        0.71929529617139
O          -11.18712550191994       -1.20638581643259       -0.56683259749042
