42
 energy: -62.486133512962 gnorm: 0.000480008095 xtb: 6.7.1 (edcfbbe)
N           -0.93604942804962       -0.15332792431524       -1.28995236587837
H           -0.23118450453169       -0.68590240085390       -1.78476026756111
H           -0.52114883523671        0.17512437381004       -0.42239685353710
H           -2.22360807876751        1.21747604430792       -1.64767621398377
C           -2.10942629294308       -0.97527702974766       -1.00119918052831
H           -2.37536767477136       -1.49700597073670       -1.92990969102536
C           -1.90595344642329       -2.00356457007732        0.10949904491648
C           -3.26383367637715       -0.02001177770085       -0.70014224200875
H           -1.70449992348407       -1.50278092728365        1.05416784562623
H           -2.79985352650129       -2.60757472451449        0.22090982272192
H           -1.06827424447133       -2.65542314937637       -0.13150654609432
O           -3.10941282796549        1.20194332898096       -1.22971939182899
N           -4.22670415590885       -0.44925970251130       -0.01981385099230
H           -5.27001572327827       -1.98491382778986        0.99208578323796
C           -5.45384031101505        0.23597503384402        0.33320234190069
H           -5.38743394058512        0.42992023309965        1.41477756966059
C           -5.80314437124088        1.53316696380003       -0.39805507685763
C           -6.50074934274103       -0.84843314927230        0.13915031616192
H           -4.93843859392934        2.19553464388672       -0.37617538470995
H           -6.01108569927640        1.28609133152589       -1.44000092872638
C           -7.00332680111716        2.26956189806417        0.21110090381038
O           -6.20245602470726       -2.02285350396630        0.72450124428327
H           -7.79224536874810        1.54296509800955        0.42374193418879
C           -6.62113575086293        2.97337963606344        1.51216932498106
C           -7.53817981041282        3.29250924105614       -0.78953329619337
H           -5.83762804311861        3.70657212822451        1.33059931561633
H           -7.48269206437233        3.49074735040415        1.92805259885673
H           -6.26398347837528        2.26707041051763        2.25794640302247
H           -7.87006530210271        2.80621772026988       -1.70350756012195
H           -8.38108936268708        3.83406324640952       -0.36658364455040
H           -6.76256319707770        4.01174865514256       -1.04459087336928
N           -7.50824978434785       -0.65667546796271       -0.58787830917503
H           -8.37288710470727        0.35546973184007       -1.80457166822923
C           -8.48642211324018       -1.68837990010158       -0.84079276820085
H           -8.01491391567177       -2.65474687553610       -1.06074850308872
C           -9.44367368086169       -1.86415633566142        0.34311073844500
C           -9.30271207249057       -1.23844997829533       -2.06245008591703
H           -9.89384208282722       -0.90781605944279        0.60261263009636
H          -10.22844934893849       -2.56374209552603        0.06971592548840
H           -8.90025451688232       -2.24646242437265        1.20358506579441
O           -9.07339913065223        0.02060840635940       -2.41448027220274
O          -10.08599771169942       -1.95141349915836       -2.62554873180999
