42
 energy: -62.486133503874 gnorm: 0.000480945828 xtb: 6.7.1 (edcfbbe)
N           -1.10530003206124       -1.13520821410148        0.38570196809652
H           -0.18790633210527       -1.29521135344276       -0.01197359795810
H           -1.38320036575033       -1.98830803769259        0.86355637612956
H           -2.05331079441807        0.15109391642669        1.43426971751466
C           -2.07959287283925       -0.81351282551770       -0.65793948182752
H           -1.61141226027617       -0.08461789260962       -1.33090476772587
C           -2.56444087230404       -2.01083964973535       -1.47162674978151
C           -3.24707619794673       -0.10039524996232        0.00951375554986
H           -2.97304615331043       -2.77171786761855       -0.80905211586682
H           -3.35128579824899       -1.68681714855373       -2.14411488302100
H           -1.74613581598298       -2.44253956536712       -2.04433823088349
O           -2.97898590208212        0.39988189700388        1.23685259536683
N           -4.34103706152309       -0.00514359648235       -0.59753263522176
H           -6.36376543969139       -0.09506468526653        2.07300857694587
C           -5.45520484094914        0.71433551995443       -0.02638784042816
H           -5.19594543998897        1.15495296105749        0.94972983054919
C           -5.86974703255060        1.81440213002087       -1.01371138665407
C           -6.58879772360202       -0.27015902987477        0.14397171218795
H           -5.01373507235020        2.47221294127224       -1.17617790669227
H           -6.10333842004118        1.31083270129329       -1.95118737127943
C           -7.07741913794608        2.63712371493818       -0.55423227646825
O           -6.95328240354303       -0.54209753905896        1.45255489191354
H           -7.88412931687956        1.95063681637980       -0.27425783374079
C           -6.74315472790011        3.52262783474695        0.64515820680617
C           -7.57166426499167        3.50000976123249       -1.71329995901007
H           -5.92520077420449        4.19714848142077        0.39997106721698
H           -7.60815906278063        4.12033898376969        0.92327113015064
H           -6.45241689333765        2.93408192249404        1.51214098243595
H           -7.85840945201712        2.87611425443927       -2.55564868234886
H           -8.43644304568709        4.08560782624715       -1.41055093719355
H           -6.78961337389096        4.18314157162450       -2.03821716889741
N           -7.11193571061275       -0.79547748800674       -0.85954418231557
H           -8.74530753349529       -0.57346950504467        1.12446897508918
C           -8.16674199976813       -1.77328075007663       -0.88803287570543
H           -8.23469471849969       -2.09573035453838       -1.93339469797468
C           -7.92625828743350       -3.00116952278163        0.00105844992634
C           -9.53110977731886       -1.16396051293447       -0.52860941602088
H           -7.91048783265785       -2.73462070838766        1.05562372623878
H           -8.71488070201437       -3.73034525247064       -0.16727574662910
H           -6.96898027339800       -3.44789908463919       -0.25807600694262
O           -9.59733548264289       -0.54511917255958        0.65067880589914
O          -10.48530206021319       -1.25386391227624       -1.24650886561815
