42
 energy: -62.486132235587 gnorm: 0.000634531591 xtb: 6.7.1 (edcfbbe)
N           -1.39982870152667       -2.02462703855733        0.42596490288667
H           -1.52148306471959       -2.21606983773343        1.41503539168447
H           -0.41425834946163       -2.11339277864590        0.20880948457386
H           -3.04161390526168       -2.61227254479085       -0.31377838933182
C           -1.88829525812868       -0.68691739583457        0.09414798319989
H           -1.65964967900858        0.07140281921178        0.85441915369330
C           -1.30810371785176       -0.23914331992018       -1.24750893105155
C           -3.40305740068324       -0.78406714671565       -0.04130822890116
H           -1.52390647417185       -0.97777242102452       -2.01671900768993
H           -1.74867109513139        0.71106371471131       -1.53360451955294
H           -0.22955137488612       -0.11827936263240       -1.17277183006114
O           -3.82954413159311       -2.02994958989694       -0.37480403125633
N           -4.08172632394672        0.25143779573181        0.11001116630518
H           -5.35316353679826       -1.61898125629520       -1.32677905102802
C           -5.48964181506648        0.51550925210998        0.04644589521538
H           -5.74004122378852        0.95601890516691        1.01687098981190
C           -5.66053610909264        1.60247842866397       -1.04535798159318
C           -6.51507250396555       -0.56715380915218       -0.22912207030506
H           -4.85232841000479        2.32217689216287       -0.90387829916215
H           -5.51673942497916        1.12659020312927       -2.01946003077716
C           -7.00453085545437        2.33550453163073       -1.03585307247693
O           -6.30234750740396       -1.49781295176828       -1.16902631950782
H           -7.81215121706719        1.59770897888149       -1.05426462867243
C           -7.16710716595209        3.20432793794647        0.20814156353834
C           -7.11422966580746        3.20055990628660       -2.29114907760695
H           -6.37953619017586        3.95390105659042        0.25185824846995
H           -8.12689964129388        3.71397267500303        0.18377102387104
H           -7.12785987751032        2.60738879990010        1.11486814173242
H           -7.04341858011010        2.59174308842924       -3.18974585022437
H           -8.06786118284747        3.72199609251686       -2.30768797684741
H           -6.31722752528584        3.94118741950426       -2.31336522299781
N           -7.62414562051291       -0.43977345812334        0.36507892819647
H           -8.79884995392098        0.63866391570851        1.21762697409727
C           -8.73473431679384       -1.32522240628093        0.09273112941610
H           -8.82139285973784       -1.56048171396491       -0.97591476983912
C           -8.61538556970580       -2.63537989066004        0.87889137819553
C          -10.01268587123309       -0.60223939321176        0.54169096871820
H           -8.48501098948123       -2.42147097011789        1.93791812765609
H           -9.52086342440370       -3.21967640330358        0.74153565121035
H           -7.75938470649894       -3.20390460859731        0.52370974935258
O           -9.77872733425252        0.52335395087070        1.20648391766697
O          -11.11462870583119       -1.02442378072894        0.32502333432222
