42
 energy: -62.486133512341 gnorm: 0.000479930987 xtb: 6.7.1 (edcfbbe)
N           -0.93673977065614       -0.41658376682823       -0.87985616253799
H           -0.25661687169212       -0.94307112066980       -1.41504777373189
H           -0.62500411811364       -0.41030379141136        0.08798558909115
H           -1.92955281038446        1.23646859538225       -0.97890683989066
C           -2.26045702413776       -1.03385220800582       -0.96820178981381
H           -2.45752170882114       -1.22644483004713       -2.03109526992035
C           -2.41602264909591       -2.33545692437610       -0.18651038113777
C           -3.28170188548212        0.01157482585671       -0.53278429825412
H           -2.18845593626937       -2.17082623238430        0.86510335452453
H           -3.44304498761815       -2.67422886666760       -0.26603230974534
H           -1.74819231816735       -3.09973704882090       -0.57923882024458
O           -2.86030033336734        1.28280955029095       -0.68021093212805
N           -4.38755641926771       -0.37888614928884       -0.09126290777629
H           -7.03721425357431       -0.12523291225977        2.11554947592456
C           -5.49172837434101        0.46107061690093        0.30254931253665
H           -5.32764532431400        0.76153906623472        1.34855434262170
C           -5.71787039664341        1.71055292952744       -0.56796348198321
C           -6.72893855827743       -0.40792614462407        0.20960208555189
H           -4.83271500719310        2.34385694663800       -0.51952998104985
H           -5.83594304554171        1.35545197023279       -1.59293430266929
C           -6.94992377732384        2.53113100849289       -0.17076489354915
O           -7.47209609103980       -0.55398499440579        1.36912871056590
H           -7.81976174641372        1.86808016684131       -0.10434424893262
C           -6.75689491730960        3.23332050890422        1.17263642809610
C           -7.23423685019889        3.56715168318899       -1.25644260603116
H           -5.89131878651919        3.89127549675791        1.13089110808440
H           -7.63187791255375        3.83304144708881        1.41262400711455
H           -6.60660537990783        2.52469286486509        1.98446838825739
H           -7.41888694776054        3.07802369355443       -2.20943851126446
H           -8.11064246490223        4.15774814677644       -0.99990289632260
H           -6.38614586687901        4.23912106816387       -1.37071060012139
N           -7.01958845246871       -0.93244175233368       -0.88477434048401
H           -9.10317523748590       -0.46142036449893        0.58531317962150
C           -8.13442437907878       -1.79475685135784       -1.17618790743869
H           -7.95700347809355       -2.16272253665653       -2.19340573271410
C           -8.27988526880675       -2.99270632568145       -0.22792389016252
C           -9.46547109507763       -1.02846733636047       -1.21572382625952
H           -8.51909747234710       -2.67529098086108        0.78464348795219
H           -9.06974631370422       -3.64666662269597       -0.58931692782391
H           -7.34374780566424       -3.54568824571784       -0.20456285809234
O           -9.78564943466564       -0.36323140436422       -0.10518380127726
O          -10.18678979169591       -1.03900892115254       -2.17185604992343
