42
 energy: -62.486133512307 gnorm: 0.000479909465 xtb: 6.7.1 (edcfbbe)
N           -1.87902959980614       -2.25170928889350        0.58089044179008
H           -2.09027300068803       -2.43053941032922        1.55703869506961
H           -0.90834044813796       -2.49455426025125        0.42167522196048
H           -3.59262767640114       -2.55105583938891       -0.24200036791498
C           -2.12728657303108       -0.85153527971119        0.24449818381145
H           -1.80673281672541       -0.14179390070609        1.01899361185637
C           -1.42889036336894       -0.50346963064427       -1.07060279452521
C           -3.62901537263664       -0.69617687639428        0.04859486880268
H           -1.73837130587094       -1.19223006299255       -1.85426587524559
H           -1.68752942263540        0.51015250634916       -1.36225386221774
H           -0.34919425232993       -0.57062420025228       -0.95525750129759
O           -4.25474832810719       -1.83322165003431       -0.31801251178461
N           -4.13965946042963        0.43467399193595        0.21984640916405
H           -5.58912712305090       -0.66879371642079       -1.92377738180806
C           -5.51814022977214        0.81725314576855        0.04570098343501
H           -5.82321124456468        1.23806675902013        1.00959216366162
C           -5.54635828736553        1.93318332719920       -1.01817379065630
C           -6.52431640769380       -0.25625719144836       -0.30738712256416
H           -4.88472650452257        2.72788295284221       -0.67072349174861
H           -5.12303875866523        1.54383263435364       -1.94961672974455
C           -6.94014745486789        2.50366152232658       -1.30223222526990
O           -6.43127555386520       -0.87245609658898       -1.49991433775706
H           -7.59128061401940        1.69437971443599       -1.65083255134469
C           -7.56614410393721        3.12016926913976       -0.05453521509319
C           -6.83668861149043        3.54943786378200       -2.41186526732344
H           -6.90087588941329        3.86548190168671        0.37606712260449
H           -8.50530306632089        3.60485095778663       -0.31021910575973
H           -7.77395118753842        2.35928277143684        0.69235616155496
H           -6.41204953645137        3.11779832975660       -3.31580892522706
H           -7.82022901903314        3.94478510774820       -2.65301852086747
H           -6.20321983887796        4.37517460949999       -2.09485827871305
N           -7.48790757411102       -0.44423238748065        0.48493722516460
H           -8.47415319022045        0.04618249001373        1.92058828605506
C           -8.53454013330473       -1.39705735237195        0.18582470001077
H           -8.86807823299611       -1.32329491009073       -0.85685436471902
C           -8.07930493211061       -2.83485435168146        0.45993877047402
C           -9.71650843057598       -1.07845218304213        1.11109254839026
H           -7.72839256978559       -2.92236534240454        1.48638776832195
H           -8.91458246053936       -3.51261996695391        0.30874042808909
H           -7.26832015909513       -3.09780978093096       -0.21442078157516
O           -9.41170793846971       -0.21714028126637        2.07562680549950
O          -10.80091361981071       -1.57603142649933        0.98717482489092
