42
 energy: -62.486133512564 gnorm: 0.000479781959 xtb: 6.7.1 (edcfbbe)
N           -1.65346091542506       -1.12324850234654       -0.52248973133168
H           -1.04535253788635       -1.93139557229915       -0.46839707116422
H           -1.16211752646771       -0.34280949818548       -0.09462120760040
H           -2.76166609482437       -0.22461550559088       -1.79369811686294
C           -2.90875933157891       -1.36626304247855        0.18937532006990
H           -3.27224923953943       -2.35479635991551       -0.11906844729784
C           -2.80008391889493       -1.32407972376825        1.71062784722486
C           -3.92656523249847       -0.35573778241750       -0.32900853246850
H           -2.41432619959044       -0.35856338012581        2.03186360798036
H           -3.78501911686622       -1.46023352322886        2.14301862440338
H           -2.13525791256075       -2.10834101369768        2.06683378880270
O           -3.64033725570988        0.13465978312535       -1.55183626927357
N           -4.93324584547871       -0.10478824142913        0.37466840198896
H           -7.42067552665191        0.99017038586972       -2.03784867300471
C           -6.01564471950411        0.78225352055229        0.01065630343731
H           -6.36384673401482        1.18290259334676        0.97355102595212
C           -5.67044116169596        1.95633241287601       -0.91490501746797
C           -7.13224353127523       -0.12112183666593       -0.49671100950457
H           -4.69416573548282        2.33818909662918       -0.60946316538208
H           -5.54928199722510        1.60445962952345       -1.94365127055051
C           -6.69008321773667        3.10619050008335       -0.84228728769712
O           -7.76764339292875        0.17817222828349       -1.64600701316143
H           -7.70568268559444        2.69986765849937       -0.75675405798320
C           -6.43507392024508        3.97885944892364        0.38527858421872
C           -6.61252313599538        3.95817822069281       -2.10924336919268
H           -5.45810976751334        4.45265483651548        0.31532539349067
H           -7.18914070209047        4.75899954080575        0.45961294925601
H           -6.46570948465567        3.38910644946463        1.29816691570037
H           -6.85390917941253        3.37544161165985       -2.99681889074648
H           -7.31031114489399        4.79024151220083       -2.05143515442283
H           -5.60933660574571        4.36144476900824       -2.22960618053601
N           -7.40018987660826       -1.14245268282192        0.18645281810153
H           -7.08994742476866       -2.10196917874280        1.65964988529020
C           -8.39946494477241       -2.11339870944695       -0.18550692496510
H           -9.37183259439865       -1.64065459826454       -0.37434906346048
C           -7.99957882743063       -2.92997806217925       -1.41942169060596
C           -8.54050324073900       -3.07370093050142        1.00884335977735
H           -7.00783363652821       -3.35422806850300       -1.27455465077380
H           -8.71478532771309       -3.73537675787035       -1.56109795205420
H           -7.98888124284878       -2.29511912531964       -2.30139935154600
O           -7.63089565782087       -2.87730474713963        1.95274634648509
O           -9.38001470821402       -3.92997320548516        1.06244413827878
