42
 energy: -62.486133509107 gnorm: 0.000480117003 xtb: 6.7.1 (edcfbbe)
N           -0.88856139265272       -0.67441345372811        0.59182541566832
H            0.07176002098401       -0.73343865230940        0.27711532985956
H           -1.08904670063656       -1.51534399952938        1.12609913278087
H           -2.06874060887273        0.58762503396643        1.44603379826519
C           -1.80900144092713       -0.56864369954985       -0.53815926773337
H           -1.39790466245150        0.18134826134484       -1.22595966208467
C           -2.03828164916998       -1.87319305453498       -1.30029261521363
C           -3.11150724515599        0.00615484227422        0.00198025491121
H           -2.46844061450468       -2.62547102557415       -0.64165130663240
H           -2.71986410389664       -1.69988849265286       -2.12637398069275
H           -1.09605622278492       -2.24950783122538       -1.69370560468168
O           -2.99806050868378        0.68238678738728        1.15220200947256
N           -4.17730779191872       -0.14124394417577       -0.65250952333012
H           -5.03475044100824       -1.73244366235636       -1.00989721925729
C           -5.44130891671060        0.38643349964350       -0.17513213160939
H           -5.40097875412171        0.63534641297731        0.89289270126642
C           -5.72032016222790        1.66466805001939       -0.98827296413804
C           -6.46917796188690       -0.71335401173328       -0.37617250285617
H           -4.90594043695885        2.35780939471399       -0.76084879172570
H           -5.64681110997747        1.40303084652880       -2.04634355670413
C           -7.05575624283906        2.36749007108865       -0.73802116086979
O           -5.97939656640575       -1.88783473203617       -0.80178355845606
H           -7.85835725488518        1.71958326072821       -1.09668498538692
C           -7.27920647972587        2.66412376355587        0.74191260310615
C           -7.09409329994557        3.66545783724367       -1.54415105455372
H           -6.46118066685553        3.26381579742646        1.13677029762946
H           -8.20529244169404        3.21782290739607        0.87642154984849
H           -7.34485433164860        1.74373401811812        1.31541089541988
H           -6.93404039756663        3.46900588209720       -2.60160744410336
H           -8.06013602242334        4.15027847720861       -1.42919040799559
H           -6.32263036991868        4.35233136342501       -1.20131626667191
N           -7.69875441411981       -0.49070623539413       -0.20334002857797
H           -9.12894863770014        0.60781353567975        0.21028532682684
C           -8.67769087104728       -1.53425557345198       -0.42183164433479
H           -8.50982809306113       -2.05246631655028       -1.37446140343648
C           -8.67643192467670       -2.57173941923951        0.70777891814068
C          -10.06082540437816       -0.87164424604219       -0.44920593735424
H           -8.80862379039120       -2.07664272697877        1.66808027429687
H           -9.49264267707017       -3.27191078115422        0.55288479166581
H           -7.73297065628414       -3.11146181233514        0.71252593767757
O          -10.06359874997558        0.37453165387920        0.00928039859856
O          -11.05063126361287       -1.43721387616924       -0.82365160034529
