42
 energy: -62.486133478592 gnorm: 0.000484253032 xtb: 6.7.1 (edcfbbe)
N           -1.33066086841959       -1.49043713844286        0.94389340312384
H           -0.32454971996970       -1.57327548246270        0.86957149461286
H           -1.71811276356218       -2.42963172315141        0.93832610045305
H           -2.66193201281149       -0.59365601196158        2.00704543270918
C           -1.88044710760098       -0.71719187159610       -0.16662660752153
H           -1.25155531030827        0.17331718824064       -0.29091171458685
C           -1.95202389142538       -1.46858009048738       -1.49556317838605
C           -3.25312407774359       -0.22070362273131        0.26809241037287
H           -2.56286515517908       -2.36388664596927       -1.39012284595454
H           -2.39497239871431       -0.82773777034086       -2.25075664882439
H           -0.95500235314109       -1.76205739002247       -1.81904683393633
O           -3.46301487505445       -0.21559012115854        1.59033389829212
N           -4.07100983529089        0.18340916913501       -0.60173441107783
H           -5.00806384778810       -1.26124877734278       -1.53538585915986
C           -5.39530551238138        0.63789001280312       -0.22296470573169
H           -5.44983364473527        0.92142459186348        0.83352643150355
C           -5.72732000700659        1.84436946213857       -1.11962675896749
C           -6.35933654561858       -0.50399714748879       -0.46753987535896
H           -4.96063911092373        2.60061480958230       -0.93658002437558
H           -5.62815936616132        1.52168637932292       -2.15868589066750
C           -7.11084326948921        2.46320684445396       -0.91003797920142
O           -5.91056801228364       -1.49921414420202       -1.25222171185764
H           -7.86796933077583        1.69435365771585       -1.08703748779959
C           -7.28476424928320        3.00281638024322        0.50714292615047
C           -7.31930864246722        3.58598094942114       -1.92552586374084
H           -6.52566737708677        3.75209743871288        0.72368553298620
H           -8.26301717849235        3.46504192082280        0.61312508050729
H           -7.20567872839303        2.20608387814854        1.24136874443628
H           -7.22266067148707        3.21170619925501       -2.94204608135350
H           -8.31119401843278        4.01627235891530       -1.81306938372369
H           -6.58417803283629        4.37473202275502       -1.77843275342910
N           -7.52804958336205       -0.44575547870474       -0.00060682588375
H           -8.88888044869271        0.52276115030645        0.74119787776398
C           -8.50025081978006       -1.48388787840166       -0.26222345789600
H           -8.48872490060441       -1.79664771965495       -1.31457874497147
C           -8.26889924072102       -2.71559701988332        0.61973438012109
C           -9.88459842186265       -0.90602084554728        0.06636647523151
H           -8.22697239984665       -2.41991157959447        1.66620490948759
H           -9.08719139613415       -3.41619893583103        0.47910759571866
H           -7.33128258558719       -3.19407398913716        0.34795805762957
O           -9.83966371570535        0.27219470522062        0.67568126110857
O          -10.90789983223080       -1.47668356011196       -0.19210133121238
