42
 energy: -62.486143125395 gnorm: 0.000732977232 xtb: 6.7.1 (edcfbbe)
N           -1.20919299920324       -1.87406126997029        0.06290171510063
H           -1.30186381966764       -2.27571369197461        0.99020378431465
H           -0.22206801184729       -1.82713789476009       -0.15977613539254
H           -2.77216199421474       -2.42880041314653       -0.82321829386933
C           -1.81911074346229       -0.54545267640776        0.00930064945436
H           -1.65685710807768        0.05471552785098        0.91407408736913
C           -1.28701891727223        0.22226959626989       -1.20112152755215
C           -3.31985051686345       -0.74564122673116       -0.16940552875631
H           -1.44425125126914       -0.35359644255725       -2.11093830174965
H           -1.80918597216949        1.17031974429924       -1.28701248490541
H           -0.22230885620702        0.41557397241098       -1.08903428290529
O           -3.61912236242649       -1.93252176951482       -0.76865597080697
N           -4.08606735942501        0.16871208871004        0.18670660296618
H           -5.30932659804992       -1.90724463919524       -0.93821458892790
C           -5.50018133990853        0.39950001836236        0.13407831395223
H           -5.73633894286816        0.89857564117093        1.07879343060748
C           -5.69263116559246        1.41970029023081       -1.02166990900189
C           -6.52289428752280       -0.70905490631862       -0.04661799454232
H           -4.88685545962105        2.15111145014701       -0.93084544119206
H           -5.55186221335166        0.88435480674625       -1.96502350460528
C           -7.03549478225686        2.15271628839019       -1.05393897255349
O           -6.25801687314051       -1.82497825051286       -0.72859922841188
H           -7.84164209666130        1.41439564246834       -1.06559972674984
C           -7.21845166435329        3.05844402801671        0.16038227669306
C           -7.12499832745936        2.97942826942940       -2.33645571302325
H           -6.43326990792525        3.81110751543577        0.19349474455593
H           -8.17887372903101        3.56437231707262        0.10577533328487
H           -7.19066230729831        2.48900630551155        1.08492504057741
H           -7.03483154055642        2.34482324175316       -3.21519325352627
H           -8.08132020279008        3.49377290010130       -2.38498929933564
H           -6.33237348521088        3.72448253463727       -2.36687130524613
N           -7.67985804835396       -0.44910835370056        0.39843546395496
H           -8.89322462263067        0.75254237826603        1.01063919313573
C           -8.78345405386226       -1.36351425669379        0.20670633319242
H           -8.80410042890560       -1.77223354624540       -0.81210535531643
C           -8.73927918107202       -2.52804175637383        1.20249641472051
C          -10.07660021725536       -0.57175038508439        0.44611462529203
H           -8.66985668015367       -2.14428256777971        2.21850805658863
H           -9.64622057227383       -3.11800192441096        1.10479670864295
H           -7.87519778471781       -3.15578362183009        0.99978455730020
O           -9.87138331020151        0.63887582678017        0.95152003206376
O          -11.16793152224141       -1.01390665957496        0.21458438488301
