42
 energy: -62.486133507076 gnorm: 0.000480524557 xtb: 6.7.1 (edcfbbe)
N           -2.22979854217441       -1.56102834056713        1.53809273768859
H           -1.80590749910365       -0.77117540477189        2.01314970743464
H           -1.52719000675071       -2.28451073285320        1.44400712465401
H           -4.09023750494714       -1.42017358051394        2.06265113186812
C           -2.74634883374804       -1.16260948659015        0.23105541048620
H           -2.07858808800325       -0.49698953273064       -0.33286134285375
C           -3.04009402195780       -2.40854336164319       -0.60617888866353
C           -4.06405860355513       -0.44052192343764        0.46664239232651
H           -3.70468226359929       -3.07528352090026       -0.06081809605913
H           -3.51523800204787       -2.11809266530241       -1.53844600828361
H           -2.11849508831607       -2.94123217889272       -0.83115538792635
O           -4.69603400172068       -0.80899558620722        1.59116078163864
N           -4.41991401508568        0.43653069086696       -0.35829843977369
H           -7.28114619148006        0.84627709868649       -2.24391630288581
C           -5.70897443997746        1.10129568856367       -0.34791525037592
H           -5.87456022527638        1.54780815133055        0.64520574012473
C           -5.65423264806070        2.20692280573241       -1.40543455449704
C           -6.83117364479252        0.09189061376962       -0.53199437064992
H           -4.70805239247871        2.73106741944277       -1.26106607617032
H           -5.59499096215064        1.75419377190950       -2.40048555188413
C           -6.80835102528587        3.21835136992020       -1.32457272219939
O           -7.55780908778125        0.12001113457467       -1.67110089374952
H           -7.74929473565857        2.69345844577938       -1.11998626307308
C           -6.57642119237822        4.21654282835934       -0.19195040425866
C           -6.94656611609529        3.96302196162703       -2.65234349053133
H           -5.66971645791082        4.78989670844743       -0.37311475770535
H           -7.41177668267522        4.90923910613130       -0.12081361868847
H           -6.47662815693590        3.70776307435618        0.76344604166916
H           -7.17843622620627        3.28048157255322       -3.46823214557764
H           -7.74275728528649        4.70110848848006       -2.59310977315572
H           -6.01934515716736        4.47892119063350       -2.89203216975977
N           -7.01996073311479       -0.77160790447748        0.36111683020203
H           -6.57250465000769       -1.46970597854279        2.01403568214901
C           -8.01532714702810       -1.80867978525016        0.25367446731742
H           -9.00023695953635       -1.40115185453671       -0.00815887674670
C           -7.63383761900982       -2.87619513461702       -0.77924263986377
C           -8.10685948894384       -2.48612786275038        1.62996839290296
H           -6.63631564201373       -3.25710896490575       -0.56733469171041
H           -8.34646877047541       -3.69460336011747       -0.72731964725904
H           -7.64472486294444       -2.44891448693252       -1.77859351468888
O           -7.13574795052380       -2.14684413344685        2.46393819505054
O           -8.96738832605513       -3.27671219765131        1.90726652011231
