42
 energy: -62.486133504969 gnorm: 0.000480581460 xtb: 6.7.1 (edcfbbe)
N           -2.44926601449569       -2.54223458178703        0.50533588999366
H           -2.82458199000878       -2.75677383493317        1.42377456172762
H           -1.50382106559814       -2.90470027793121        0.46347448597939
H           -4.06350618306556       -2.50217740921082       -0.59253778789996
C           -2.46189203021760       -1.09952673828581        0.27113407089625
H           -2.12233082961187       -0.50174936089069        1.12772116605086
C           -1.59656004433298       -0.77037244380894       -0.94626248154715
C           -3.89969527533836       -0.71625448750537       -0.03887967454794
H           -1.92640008447922       -1.34740656825337       -1.80797104072408
H           -1.67453139767587        0.28843492524006       -1.17460572003249
H           -0.55475265837307       -1.01058765309490       -0.74546115570341
O           -4.61020412865189       -1.69164638027792       -0.63632490183574
N           -4.29659721495946        0.43630156666173        0.25484336261430
H           -6.17259461022329       -0.13530208435776       -2.15870910123465
C           -5.61619144111696        0.96547238237241       -0.00914417235659
H           -5.90647682992347        1.44712239678975        0.93132900364898
C           -5.49098946730526        2.03861303275511       -1.10201451547963
C           -6.68088167659379       -0.06873884340303       -0.31438699362907
H           -4.75283103529274        2.76337369930108       -0.75418725461023
H           -5.08176950461559        1.58588807123944       -2.01234509119721
C           -6.80258232779006        2.76124433506425       -1.43231680111612
O           -6.86266279987393       -0.48384021221646       -1.58178173322747
H           -7.54530933243500        2.02911395464354       -1.76851544448141
C           -7.36762316762585        3.48906688958488       -0.21502300247791
C           -6.55639235769764        3.75226449191987       -2.56961647795143
H           -6.62030877208317        4.15463588648541        0.21142017540502
H           -8.23092607233652        4.08358510587254       -0.50456592303819
H           -7.68628738786996        2.78503827606997        0.54897179020860
H           -6.16701306629802        3.24679941435227       -3.45111675196454
H           -7.48173767541725        4.25167916349411       -2.84542940186122
H           -5.83720783105154        4.50838747139815       -2.26217422706217
N           -7.38215262431133       -0.48628146972379        0.64730034064532
H           -7.98559299582019       -0.32469824301483        2.34610134846996
C           -8.40823798693024       -1.48743544824401        0.45419042663746
H           -9.01679180374192       -1.28168076862719       -0.43526148122098
C           -7.80552209457864       -2.89124609003009        0.32771057942082
C           -9.31192254232152       -1.45803297197585        1.69375888506106
H           -7.18841790282932       -3.10747379953289        1.19767146032274
H           -8.60579519467163       -3.62305181078720        0.26607372302927
H           -7.18870257360340       -2.94550468551648       -0.56544343132351
O           -8.82261092525794       -0.72127076303932        2.68511217371037
O          -10.34652039345336       -2.06105991228566        1.76708599559890
