42
 energy: -62.486133509068 gnorm: 0.000480576519 xtb: 6.7.1 (edcfbbe)
N           -0.96290558803973       -0.59643872616916       -0.18761126381617
H           -0.14660283776035       -0.84055809342789       -0.73589107339629
H           -0.99661205975063       -1.23207429373224        0.60527478425849
H           -1.88419920553096        0.96332582774133        0.55193878355927
C           -2.18326495036602       -0.74187262273931       -0.98320341764027
H           -2.01733528128790       -0.20552680459123       -1.92695568498866
C           -2.59256014996599       -2.17981142484822       -1.28753308231662
C           -3.28784976292485        0.00319913676320       -0.25299834738931
H           -2.68384984893978       -2.74575158858825       -0.36285494971123
H           -3.56041235282887       -2.17378213014789       -1.77682004585503
H           -1.85659165133981       -2.66101263745740       -1.92841062205790
O           -2.86010915094011        1.00874268807304        0.54378727250432
N           -4.48389982879189       -0.33143723783195       -0.42495423199985
H           -7.49290594180020        0.49635367979037        1.64941184689540
C           -5.56362994623352        0.39118762695635        0.19277218877492
H           -5.35035908983611        0.59065864941261        1.25575768953468
C           -5.75465470555519        1.72959425371273       -0.55881933288768
C           -6.81541412453857       -0.44169915565169        0.07278376539651
H           -4.80694405619984        2.26885558630263       -0.50233030549859
H           -5.93734269641230        1.47212262334429       -1.60399526042469
C           -6.87481136370244        2.64561239911085       -0.05579542453557
O           -7.79226422290455       -0.17724043344394        1.02669674943752
H           -7.81916290018733        2.09156532242508       -0.02432123881316
C           -6.56856584683131        3.21073507370445        1.33129639461857
C           -7.05527338931621        3.79603908750528       -1.04598096022150
H           -5.66134342478668        3.81013058157126        1.29592531841367
H           -7.38485824807974        3.84534992522956        1.66974748462130
H           -6.41999154936914        2.42906449544854        2.07452992254948
H           -7.32534970195589        3.41578467992856       -2.02791161456204
H           -7.84260062928183        4.46693175758786       -0.71037317207558
H           -6.13331796208612        4.36618454665394       -1.13823409647834
N           -6.92234948668149       -1.30177159308550       -0.82210792017404
H           -9.19596792035307       -0.31754359757388       -0.09224820563187
C           -8.02959557597762       -2.18611334792767       -1.06809380614972
H           -7.68426859656293       -2.87116219136505       -1.85104461027524
C           -8.47111448197022       -3.00490137370914        0.15363000491564
C           -9.25721379571345       -1.45716739574706       -1.63660536157559
H           -8.87322515378049       -2.36716098540465        0.93790640935392
H           -9.23329075885915       -3.72005322780912       -0.14605523929976
H           -7.61518095659434       -3.54521441405214        0.55142950202414
O           -9.72428041483336       -0.44688992081657       -0.90297577792388
O           -9.78472163989850       -1.78828081348163       -2.65982801196054
