42
 energy: -62.486133511086 gnorm: 0.000479703393 xtb: 6.7.1 (edcfbbe)
N           -1.22517916213540       -0.29610312563001       -1.73316808829744
H           -0.56331393749398       -0.89374335873443       -2.21306255429547
H           -0.71106049415022        0.23061326090221       -1.03239362075653
H           -2.67191127404420        0.90001918034212       -2.16102935594190
C           -2.27386372567120       -1.08564306819933       -1.08992248236232
H           -2.64296785141463       -1.80158293991980       -1.83613437452894
C           -1.82488798972590       -1.84597518438526        0.15532689295073
C           -3.43491055105135       -0.13704673870041       -0.79852435280915
H           -1.47204743096526       -1.14984843100088        0.91313657012894
H           -2.66102681280250       -2.40309012142786        0.56270761522124
H           -1.02236588966413       -2.53765101694149       -0.09321165681806
O           -3.47766743917650        0.93237905232084       -1.60585373906781
N           -4.22996362183063       -0.43730204408939        0.12508881385132
H           -5.58535077824341       -1.83344921321670        1.60361957632624
C           -5.43425250241010        0.26775294487358        0.51717975606614
H           -5.33283451415466        0.43538289860036        1.59994456654536
C           -5.76287156409089        1.58962270959140       -0.17846951324033
C           -6.50471649610860       -0.78670176013304        0.30969354626023
H           -4.90362444049480        2.25526434357538       -0.08597619252285
H           -5.91741618798022        1.38773437853394       -1.23781446272215
C           -7.00290356680742        2.28383358862528        0.39797779541675
O           -6.41859073486841       -1.86521950096268        1.11511988132826
H           -7.79479881324858        1.53919052629296        0.52255599534702
C           -6.71018216558822        2.92132990521594        1.75504470556830
C           -7.49181800270269        3.35062718328455       -0.58000509765973
H           -5.91833663391672        3.66211970716214        1.66246534476188
H           -7.59876266407414        3.41849908800032        2.13754527179264
H           -6.40208910417733        2.17845396612444        2.48691921118865
H           -7.76396505300752        2.90467466900563       -1.53340731058784
H           -8.36422841284454        3.86300553681628       -0.18095072286735
H           -6.71162970080269        4.08829439376365       -0.75545074184049
N           -7.32980144067368       -0.68616798889318       -0.63312739013181
H           -7.90816758490421        0.17218061560523       -2.10804246947434
C           -8.30737239009051       -1.70947728666662       -0.92000492812140
H           -7.85986396457215       -2.71151805920176       -0.92246917743562
C           -9.46624719266225       -1.68888765565032        0.08307021450323
C           -8.87193452517380       -1.40745675858085       -2.31690184610993
H           -9.90129772474271       -0.69223618894254        0.12853895760844
H          -10.22832246452692       -2.39465954440038       -0.23511480225521
H           -9.10568614472101       -1.96533002537953        1.07066322219829
O           -8.51431090553526       -0.21740780163758       -2.78286040984664
O           -9.58364941121169       -2.16650593208939       -2.91376751062696
