42
 energy: -62.486133509786 gnorm: 0.000480211893 xtb: 6.7.1 (edcfbbe)
N           -0.76516827481873       -0.24740571750752       -0.43497204732203
H            0.02115933773824       -0.41885610747156       -1.04969514828113
H           -0.61631634595803       -0.79413782256685        0.40897171430796
H           -1.79993678391938        1.23296481839181        0.25981263258962
C           -2.02140963353850       -0.64683642389397       -1.06945189384699
H           -2.01630754811782       -0.23875406558960       -2.08826696087644
C           -2.25868928771620       -2.15344809121791       -1.13453390872535
C           -3.14498067461825        0.06372553540568       -0.33051636801111
H           -2.21402845364645       -2.58434956480203       -0.13602059035497
H           -3.24468818281911       -2.34181702252500       -1.54527642868082
H           -1.50753000140157       -2.63181647068661       -1.75951360020971
O           -2.77295403595726        1.16946699280201        0.34040001638604
N           -4.31547670928558       -0.38997049457873       -0.39024239546343
H           -5.60307276413707       -1.46960324879507        1.87264750062306
C           -5.41838682685359        0.30258853086869        0.25061135214122
H           -5.13131764643528        0.63712894562652        1.26021934162818
C           -5.83474231101747        1.51843967418428       -0.58761760974574
C           -6.51728797687937       -0.73008294477541        0.35637721687381
H           -4.97285713795863        2.18515726466484       -0.65539394123276
H           -6.06727343931752        1.15737948652046       -1.59014256129150
C           -7.03252632992450        2.29241765883702       -0.02899241919854
O           -6.42782913693353       -1.59877393005178        1.38906012082635
H           -7.84284512333828        1.58470914453638        0.16877343495042
C           -6.68214755420370        3.01577704099133        1.26957532733726
C           -7.51455180062497        3.29887117230578       -1.07238877509374
H           -5.84172883335514        3.68923161932233        1.11440389905306
H           -7.53122279842663        3.60123520580730        1.61498497840541
H           -6.41932504059228        2.31325091566880        2.05643912464167
H           -7.80952583175320        2.79233195580822       -1.98796617120929
H           -8.37117687968272        3.85433670066432       -0.69803958620482
H           -6.72400322994125        4.00780257684318       -1.30947956512183
N           -7.41538457419453       -0.80164588256713       -0.51935238278986
H           -8.02270033396304       -0.32529701933633       -2.14031489773983
C           -8.44508671411205       -1.81314076914225       -0.49427447535681
H           -8.03454120647139       -2.80902564131703       -0.28566374302404
C           -9.52723367404387       -1.49741698323646        0.54431681028086
C           -9.09688248973036       -1.82327657073674       -1.88635528385933
H           -9.92124899175595       -0.49661221323082        0.37818051247115
H          -10.33554946604214       -2.21682111702967        0.44965494191264
H           -9.10789610561816       -1.55285437488135        1.54562856083994
O           -8.70064235727562       -0.82089217080077       -2.66007789500994
O           -9.90087808736714       -2.64600642369413       -2.22657374259525
