42
 energy: -62.486133511518 gnorm: 0.000480170998 xtb: 6.7.1 (edcfbbe)
N           -0.82533049062585       -0.41997156481000        0.42170184454408
H            0.11479851214458       -0.53929181871743        0.06453646301883
H           -0.98364114129900       -1.14642663628268        1.11473171749855
H           -1.99604786199169        1.00913296885437        1.06991429076674
C           -1.81247402062759       -0.53147906556151       -0.65051294718598
H           -1.47532040856168        0.11919848818264       -1.46864424361921
C           -2.02033051194733       -1.94552151553281       -1.19034483435098
C           -3.10371701178623        0.07223415765425       -0.12091322986590
H           -2.37841544321890       -2.60337633572844       -0.40071639184092
H           -2.75372814920727       -1.92866997042166       -1.98983439086537
H           -1.08389489763721       -2.34056809338533       -1.57920158632759
O           -2.94495163206198        0.99857597120901        0.83447483280029
N           -4.21173585316015       -0.28965532496139       -0.59665610116878
H           -5.07641231398513       -1.88772774692723       -0.78595469339606
C           -5.45855331968862        0.28363023111347       -0.12452505569359
H           -5.40413519739433        0.52507995916343        0.94528442369220
C           -5.69543175475929        1.58056535135377       -0.92135325924480
C           -6.51488842500765       -0.78955238545746       -0.32486987092426
H           -4.86161225351417        2.24422374863062       -0.67668287445240
H           -5.62302057570866        1.33182430306579       -1.98293501190427
C           -7.00773807180193        2.32691221381221       -0.67428902844835
O           -6.03603547319861       -2.00632391197444       -0.62340273011968
H           -7.82586392981731        1.72879664166645       -1.08013315017871
C           -7.25793974071923        2.57273698244165        0.81051516244846
C           -6.97017614507343        3.65617322986780       -1.42807165659331
H           -6.42068369183876        3.10910653040206        1.25304789443821
H           -8.15640591442488        3.17041996180958        0.94441008450439
H           -7.39015448767010        1.63320864634820        1.34003802782435
H           -6.78388399121399        3.49417775486116       -2.48721493455021
H           -7.91985774818291        4.17468993754705       -1.32402182739482
H           -6.18390349586772        4.29771785608784       -1.03471939888145
N           -7.74542938147215       -0.51910385932857       -0.26151601541537
H           -9.17546778582992        0.62004093731746        0.05643038889403
C           -8.73895470673158       -1.55180698238055       -0.46878063950198
H           -8.53538853742650       -2.13052375275195       -1.37840772339301
C           -8.82449671874733       -2.51869462988489        0.71924093336954
C          -10.10122825200453       -0.86159221163852       -0.60563519937467
H           -8.99415304735178       -1.96350442784967        1.64010791365540
H           -9.64944996040147       -3.20807353549296        0.56242459886471
H           -7.89731820371354       -3.07890551976427        0.80725723965867
O          -10.10277807230056        0.39863409658820       -0.18600939289542
O          -11.08004115467202       -1.41833654222964       -1.01983461672278
