42
 energy: -62.486133502573 gnorm: 0.000481111036 xtb: 6.7.1 (edcfbbe)
N           -2.35225992642903       -0.61297953691833       -1.95411522455832
H           -2.41085282141697        0.30167081057211       -2.39025687083690
H           -2.39253208769014       -1.30999641949302       -2.68923982644723
H           -1.35248669523720       -0.34464954137835       -0.32959637966560
C           -3.45107957884796       -0.80619173269299       -1.00489442037803
H           -4.42366853345657       -0.49008637482222       -1.40359173306381
C           -3.50225794060571       -2.28760026036214       -0.62430969657972
C           -3.09075543146714        0.03032906005790        0.23123070123530
H           -2.52308060108298       -2.61490767569132       -0.27981655439618
H           -4.22537100145964       -2.46575414162445        0.16532844838982
H           -3.78733730633907       -2.88348698959902       -1.48946250189541
O           -1.77567825412268        0.05150361924429        0.46164482862450
N           -3.81789063733312        0.69696307693500        1.01584109732187
H           -5.24678172282596       -1.15300943490709        2.33199709282495
C           -5.25425721203313        0.83234414997575        1.01220449780981
H           -5.50863975067686        1.11381554508718        2.04485115065836
C           -5.65692402404298        1.98136706824111        0.07461113461991
C           -5.97354431493662       -0.45793195719767        0.69716083718365
H           -4.98980203225682        2.81981569339968        0.28261353408337
H           -5.47901711598648        1.65820323597987       -0.95220038327850
C           -7.11337516362412        2.43532924915250        0.22239447564271
O           -5.83232577314320       -1.44024651346447        1.61856167787439
H           -7.75466989888179        1.54886639457121        0.23342839930779
C           -7.32965592922086        3.21642638912451        1.51649631584670
C           -7.50138154353536        3.30119597912008       -0.97541469450140
H           -6.68640202078316        4.09329570865836        1.54131173599482
H           -8.36301320535106        3.54804902846821        1.58681394137004
H           -7.11309609822534        2.60731543384191        2.39014372718723
H           -7.40575517556894        2.74547565406086       -1.90540655506858
H           -8.53140962718543        3.63722590229562       -0.88380088922074
H           -6.85969564030895        4.17786049729745       -1.03107363125176
N           -6.61808876815210       -0.60413722539327       -0.37273072399099
H           -7.01162922833827       -0.04202345876697       -2.08635798971860
C           -7.24739215475799       -1.84842823110345       -0.74613805935642
H           -6.71766302913655       -2.72792348231691       -0.36156733352891
C           -8.70271971536143       -1.88879317972837       -0.26634266671291
C           -7.25077775768399       -1.88409770780817       -2.28052723155029
H           -9.24152138539451       -1.01492798624866       -0.62785420685733
H           -9.18386935705811       -2.78630753214873       -0.64475972985465
H           -8.73066538245821       -1.89678985913645        0.82075046282569
O           -7.13929051812060       -0.67650818456612       -2.82809081562192
O           -7.35756548807308       -2.89149141028014       -2.92027166936616
