42
 energy: -62.486133501977 gnorm: 0.000481266126 xtb: 6.7.1 (edcfbbe)
N           -3.16858954668607       -1.65532150871258        1.91282377065676
H           -2.30776711865121       -1.90328343024087        2.38347748774855
H           -3.73735196468563       -2.49025702174871        1.81970434723912
H           -4.51270740680556       -2.42514328542343       -0.53399737400198
C           -2.90004915096880       -1.01967111303338        0.63332500737706
H           -2.36029307221452       -0.09199133159046        0.84474745787640
C           -2.07915035829263       -1.87789276315497       -0.34496689936464
C           -4.24461792924299       -0.61345653084404        0.05811811060601
H           -2.51291671730882       -2.87065779912341       -0.47441190529614
H           -2.01319179371770       -1.39265298784223       -1.31586644908341
H           -1.07142641067885       -2.00880430620053        0.04325956343826
O           -4.95067168325703       -1.56684183800979       -0.59644280727073
N           -4.60591059837274        0.57465677422646        0.22578686550334
H           -7.71772374763658        1.05109649160553       -1.77010202203748
C           -5.88743617165807        1.15121393857901       -0.10153176247129
H           -6.10861774433920        1.80220252951547        0.75637384951218
C           -5.70565964330356        2.03562958658206       -1.34938613579994
C           -7.04321031449236        0.16345185058498       -0.20482946769021
H           -4.67331717173892        2.39079960978346       -1.33294559960871
H           -5.80596196003188        1.41844184823684       -2.24851667575388
C           -6.64138901486286        3.25517769945193       -1.40694391608010
O           -7.96218890176217        0.33015844026485       -1.17673182116663
H           -7.63751596514308        2.98400317870685       -1.03521057598597
C           -6.10809541211839        4.37904141745840       -0.52099337784407
C           -6.77790190001502        3.74625554698650       -2.84809149420049
H           -5.15405174320993        4.73773196410262       -0.90062129821141
H           -6.80619112614503        5.21278858918946       -0.50286713047373
H           -5.96102881837743        4.03352871675206        0.49903826705785
H           -7.21806577488851        2.98409322174178       -3.48932441798276
H           -7.41074665275492        4.62946314709757       -2.89004951076008
H           -5.80120183914222        4.00698759045336       -3.24982161658883
N           -7.09545351258167       -0.74633706625962        0.66213965191356
H           -6.04924438144314       -1.64865369512312        1.80594191291199
C           -8.04522454041397       -1.82652760538549        0.72431235498379
H           -8.89737085518406       -1.50789728121278        1.34117518325880
C           -8.56231359131778       -2.38016003162848       -0.60413958082764
C           -7.34483042948151       -2.95887687293034        1.50361174846611
H           -7.72701016269531       -2.53726896657965       -1.28358869408689
H           -9.04900159484685       -3.33336768159760       -0.41390147722074
H           -9.26819181178465       -1.69669359194585       -1.06575994157185
O           -6.18624349693796       -2.60046352500071        2.04362569189740
O           -7.79635925154879       -4.06652770617705        1.60251604789808
