42
 energy: -62.486133512194 gnorm: 0.000479769671 xtb: 6.7.1 (edcfbbe)
N           -0.87594133266406       -0.37162393341855       -0.52441175088284
H           -0.12840184896352       -0.80543356900493       -1.05271544659697
H           -0.71212923346545       -0.57518951522771        0.45792074760358
H           -1.84532376256459        1.31819539740818       -0.41612872471385
C           -2.17613504217975       -0.90629330468055       -0.92949074113453
H           -2.21673363682769       -0.85846111726349       -2.02576833593349
C           -2.45454918307889       -2.33802859946371       -0.48098171864388
C           -3.24005315194335        0.05694338163399       -0.42437541920121
H           -2.37557229072671       -2.41434119790796        0.60160981098494
H           -3.46420506523277       -2.60835329216072       -0.77004796814830
H           -1.74658838306155       -3.02628388717694       -0.93831619594975
O           -2.80918441682947        1.32338226646723       -0.25327254008989
N           -4.39989994118678       -0.36801791932853       -0.20629152871679
H           -6.76518290312655       -0.13895026499031        2.19275560989312
C           -5.49324618100111        0.48473131944004        0.19907332596157
H           -5.27944669437780        0.90824883372948        1.19275516831722
C           -5.75898112281271        1.62719007150742       -0.79727858587030
C           -6.72046695161629       -0.39724629153385        0.25988637009304
H           -4.86365336222190        2.24507225119660       -0.86695852468200
H           -5.93981898383347        1.15654251362482       -1.76446025107099
C           -6.95845535648542        2.50616008643433       -0.42821326162779
O           -7.30017863766987       -0.55774080849615        1.50810830945700
H           -7.82677250527016        1.86439585089922       -0.24176020933419
C           -6.68755245016441        3.34717760116366        0.81809723763464
C           -7.29310717369642        3.41925049963736       -1.60595405275712
H           -5.80458164610161        3.96566107385301        0.67054094543876
H           -7.53370546557011        3.99934590673528        1.02208888371707
H           -6.52713297309631        2.72676032426034        1.69707823822917
H           -7.53648379851133        2.82968670866713       -2.48603819033506
H           -8.14753341087654        4.04889392027371       -1.36935040927824
H           -6.44636198277862        4.06070363915032       -1.84135184149064
N           -7.14581370980421       -0.92541153395349       -0.78754514724319
H           -9.02139770790619       -0.46982033570354        0.93076507033809
C           -8.27094463355363       -1.81180174601209       -0.92641413482191
H           -8.21924794512270       -2.18642192498450       -1.95526977228096
C           -8.27059218091819       -3.00285924304387        0.04158070689660
C           -9.60960395117065       -1.06864986660624       -0.79874193695827
H           -8.38821588709360       -2.68025971293317        1.07369244417242
H           -9.08480607731935       -3.67688513542502       -0.21299823543392
H           -7.32668142908858       -3.53554817819088       -0.04842046008541
O           -9.78992219128444       -0.39031147079446        0.33516365999622
O          -10.45158665390572       -1.10643458786993       -1.64962608095028
