42
 energy: -62.486133521980 gnorm: 0.000478864006 xtb: 6.7.1 (edcfbbe)
N           -2.14399649305836       -1.98614305507816        1.22279775583742
H           -1.17814786301467       -2.28306043748798        1.29273860408410
H           -2.70811668693341       -2.81398310138930        1.04996020481420
H           -3.45552843268590       -0.91043853426690        2.15009626376146
C           -2.32302462115719       -1.02786239108098        0.13418129399202
H           -1.53003058772416       -0.27465566067424        0.22777061211808
C           -2.27624618585939       -1.63564719472745       -1.26655489838190
C           -3.64134536424956       -0.30910616048250        0.38365786708471
H           -3.05530605229135       -2.38794649121365       -1.37364802486239
H           -2.44486843186945       -0.85746603120634       -2.00316620703160
H           -1.30875161058139       -2.09941301114134       -1.44804144390176
O           -4.08375406431482       -0.35400396043925        1.64717542768224
N           -4.21416908760998        0.28916478369821       -0.56483711408582
H           -5.85797359720548       -0.17653685832494       -2.38652931815940
C           -5.47868337605082        0.96940757014261       -0.33625007530988
H           -5.58365465422130        1.28347492461426        0.70767754461665
C           -5.57625467475031        2.17299643371702       -1.28021803555791
C           -6.53782039371740       -0.06942288624594       -0.61706538223832
H           -4.87411562204646        2.93203342257666       -0.93053530493794
H           -5.24550264872213        1.86947057052172       -2.27766040459631
C           -6.98323607694780        2.77516827640684       -1.36819293054838
O           -6.57435453301026       -0.56715892081625       -1.86823020385987
H           -7.67438084725807        2.00758380563079       -1.73523383477760
C           -7.47818913967067        3.25136117901476       -0.00482069263139
C           -6.97841519924531        3.93438862774952       -2.36347281456557
H           -6.76834006907438        3.94871211823464        0.43494976334732
H           -8.43465076506979        3.75781838569469       -0.11082471579433
H           -7.61327627460108        2.41348081421538        0.67347427639929
H           -6.64860428380147        3.60268310400609       -3.34566124728909
H           -7.97631808045955        4.35421203318916       -2.46246550165445
H           -6.30800418250630        4.72091289919768       -2.02365140933015
N           -7.26164446416202       -0.48281193154494        0.32543061360427
H           -7.85756945208238       -0.32888678084169        2.02651775337632
C           -8.23530948101021       -1.53677409209632        0.14788314241789
H           -8.86453029485604       -1.36556194756459       -0.73434728482420
C           -7.57102473414591       -2.91253643261572        0.02335038200963
C           -9.12634444209138       -1.54150515995086        1.39986826992145
H           -6.89663337456845       -3.07265331691699        0.86268690137738
H           -8.33721828600258       -3.68260428417980        0.02956680938320
H           -7.00670013703074       -2.96996429029392       -0.90404891861998
O           -8.67078237761249       -0.76590253169039        2.37504432300332
O          -10.12337431100933       -2.20284930183101        1.48956302763493
