42
 energy: -62.486133509211 gnorm: 0.000480525646 xtb: 6.7.1 (edcfbbe)
N           -1.15705286024898       -1.83214070970939        0.27719530882438
H           -1.18771174820058       -2.06139421336698        1.26508182613057
H           -0.18504523390237       -1.80487298993433       -0.00647657747338
H           -2.74299998994043       -2.57464312413823       -0.39386992328947
C           -1.81102300219212       -0.54912401395322        0.02152313993435
H           -1.62577770683348        0.20592381171643        0.79644144014642
C           -1.36314717777758        0.00407036594439       -1.33157647517762
C           -3.31231323840174       -0.81060802734232       -0.04301515848564
H           -1.54637631594680       -0.72703948140226       -2.11625477609821
H           -1.91961772601545        0.90948286961072       -1.55445208434749
H           -0.30095485699336        0.23907247746257       -1.31349697072471
O           -3.60286852147574       -2.09719267985077       -0.38643518445068
N           -4.08496988194445        0.14114104831980        0.16861188755366
H           -5.26830376142646       -2.03911555191059       -0.66728347713286
C           -5.49842507223135        0.37216307821260        0.15126665131241
H           -5.71698666494883        0.86016955315872        1.10625663153362
C           -5.67245916368976        1.42059284282243       -0.98405526562163
C           -6.53329916688557       -0.72597422726535       -0.04176720487467
H           -4.84436342644398        2.12415557816978       -0.87631065462922
H           -5.54367030933567        0.89959308610269       -1.93675798467723
C           -6.98701275887638        2.20117945395310       -1.01540540209188
O           -6.23036847586113       -1.90974560280442       -0.57934289639863
H           -7.81504199711637        1.49533738529249       -1.11492356557072
C           -7.19003581346146        3.02719857983034        0.25121445733980
C           -6.99052923999632        3.11705188095191       -2.23936950853847
H           -6.36390423023420        3.72269530620529        0.38619747644619
H           -8.11247237019722        3.59785874848423        0.17994737399847
H           -7.25429576963391        2.39152170433540        1.12989933591471
H           -6.86575353925808        2.54253651461914       -3.15438457843450
H           -7.93211570329600        3.65639355284574       -2.30185251142738
H           -6.18226480726012        3.84301007424135       -2.17606263754694
N           -7.72556823044177       -0.40605765348666        0.24250028192860
H           -8.98044940717735        0.82835443048727        0.71528071268783
C           -8.81995038021883       -1.32706953100910        0.02754564340731
H           -8.76561529590743       -1.80075895026927       -0.96120585232329
C           -8.86667727382499       -2.42586235479819        1.09629430383657
C          -10.12178620613904       -0.51957998033936        0.11863273247621
H           -8.87955981353010       -1.97805270472354        2.08826612871975
H           -9.76689397966376       -3.01879476043259        0.96111602491990
H           -7.99391780924548       -3.06759709412769        1.00697332889820
O           -9.95087087234757        0.71228742573848        0.58407758449028
O          -11.19374146064187       -0.96819185044870       -0.18108871466740
