42
 energy: -62.486133520762 gnorm: 0.000478502299 xtb: 6.7.1 (edcfbbe)
N           -1.89904686339193       -1.77053756850164        1.19384415232287
H           -1.62253520946517       -1.13226226606420        1.93250953728401
H           -1.11813701644244       -2.38784656651876        1.00667956384520
H           -3.82477638136252       -1.86317771941373        1.49057951823911
C           -2.27977934493294       -1.03326253330452       -0.00854148134892
H           -1.61249601511150       -0.19390333495637       -0.24962033653947
C           -2.33441023687230       -1.98844254893082       -1.20217394035717
C           -3.67529080550430       -0.48413892552646        0.23195202457936
H           -3.02617224949244       -2.80330141510140       -0.99937710617575
H           -2.66539804115213       -1.45233975219403       -2.08657217227259
H           -1.34911338394115       -2.40708835779825       -1.39594651300426
O           -4.41025156912031       -1.17472451616597        1.11302166314887
N           -4.05461435800758        0.53710480359692       -0.39946645562339
H           -5.50738845240445       -0.25315212519196       -2.23745868947458
C           -5.41063234919706        1.03979680776156       -0.24211158546963
H           -5.57812272475293        1.33797893845164        0.79843209703675
C           -5.58083503811801        2.24282036226771       -1.17895069357410
C           -6.39618919509200       -0.05729979661651       -0.56334543635356
H           -4.91013004568851        3.03073281782655       -0.83334121208432
H           -5.24700228505620        1.95581993449404       -2.18004230421549
C           -7.01461082690285        2.77732907731770       -1.25745453220930
O           -6.25213546898220       -0.65145777901026       -1.76733724701258
H           -7.67320535090290        1.97113445592893       -1.60060018234256
C           -7.51404346366331        3.25731177234020        0.10270384847035
C           -7.07539325590698        3.91682943641726       -2.27359750992638
H           -6.83272336771478        3.99712906406612        0.51782707990973
H           -8.49525092200430        3.71454249607362        0.00000499813232
H           -7.60049892857964        2.42767036803511        0.79866413681457
H           -6.74109037675263        3.58262600258613       -3.25344358098338
H           -8.09293945464948        4.28761082507615       -2.36857181819494
H           -6.43869997046410        4.73988305959998       -1.95606494177172
N           -7.26887101715612       -0.38901586686298        0.27903120899235
H           -8.14074325421082       -0.10968262672249        1.83799203827965
C           -8.21093165102975       -1.45615537698001        0.02534695456047
H           -8.67013186922260       -1.36706090937344       -0.96727143598293
C           -7.55175505224862       -2.83478581556730        0.14532039823189
C           -9.30947158091099       -1.35190804994598        1.09322070221353
H           -7.03424630419436       -2.91188755624496        1.09936272461108
H           -8.31581166793085       -3.60488328167176        0.08625609151796
H           -6.83417702604946       -2.97272393971968       -0.65936914229676
O           -9.01303067769666       -0.50612568918283        2.07232861054860
O          -10.32410819548666       -1.99118170967738        1.05451609097105
