42
 energy: -62.486133505284 gnorm: 0.000481359546 xtb: 6.7.1 (edcfbbe)
N           -0.99727951096641       -0.49086978693669        0.51986020339747
H           -0.09820799596979       -0.82358623053165        0.19338979565026
H           -1.17243829198163       -0.92264133659412        1.42319074771194
H           -1.99660853558188        1.14495355946274        0.74235553535751
C           -2.06125616969648       -0.85546082057005       -0.41455611898215
H           -1.71670327252328       -0.57890077045623       -1.42001966431758
C           -2.44440811320631       -2.33324894069970       -0.40094844409190
C           -3.25471565905054        0.03559205966224       -0.09971042163077
H           -2.76818953966892       -2.62512103315032        0.59560180065202
H           -3.26727838661406       -2.50244577347151       -1.08658373422483
H           -1.59662902362770       -2.94907487603904       -0.69459187305079
O           -2.95275534696853        1.17909878472634        0.53587050662683
N           -4.41004425543623       -0.33276901428406       -0.43199201143500
H           -5.89263059322469       -0.47134845679359       -2.33446706427005
C           -5.57518727312248        0.49753262301967       -0.19539501230139
H           -5.68281784047272        0.69972373620062        0.87565215647245
C           -5.52049497533546        1.82988112306087       -0.96429188399113
C           -6.75153594852157       -0.33186652956690       -0.65421399852987
H           -4.74739090290032        2.45143229326522       -0.51079005699649
H           -5.21779901984552        1.63058244456197       -1.99773693697307
C           -6.85188882336029        2.58935544108536       -0.97014600709455
O           -6.74294327826978       -0.71294452103833       -1.94408986372951
H           -7.61864850754894        1.95638676899223       -1.43146926924063
C           -7.30672208403687        2.94223486227845        0.44336274348069
C           -6.70544568170449        3.85755024692323       -1.80977962477483
H           -6.52583074797179        3.48879775137145        0.96789917683945
H           -8.19606082315002        3.56669639565286        0.40406891324788
H           -7.54946346052432        2.04619995405671        1.00781063231286
H           -6.39776283103352        3.61833421189351       -2.82561530051664
H           -7.65089752341942        4.39214332900140       -1.85725823041854
H           -5.95984794262155        4.51718014943510       -1.37082620107547
N           -7.62525783068484       -0.69250226095531        0.17770313477763
H           -8.44727758669967       -0.47428210724637        1.77331542184583
C           -8.75029626925466       -1.51707384802706       -0.20811805616155
H           -9.18231282957267       -1.19780874037946       -1.16463326510277
C           -8.35745433184908       -2.99479384368640       -0.31156795722186
C           -9.81570780895515       -1.37382480926573        0.88863448567082
H           -7.88798061970225       -3.31895193332373        0.61491247001223
H           -9.24822275049195       -3.59092463349332       -0.48862031995083
H           -7.65734400816568       -3.13454274116770       -1.13108817108455
O           -9.37673016432736       -0.73970045757001        1.96974317638331
O          -10.92772469873223       -1.81101810503581        0.78407361082201
