42
 energy: -62.486133504277 gnorm: 0.000481300642 xtb: 6.7.1 (edcfbbe)
N           -2.61142730637848       -2.21594516266951        1.35071600768292
H           -2.82145573649014       -2.07692254463057        2.33318083940701
H           -1.66786979873261       -2.57598870462825        1.27759430760088
H           -4.31099457986117       -2.61136485954220        0.65523483583469
C           -2.75798105757873       -0.96910192281926        0.60409325415436
H           -2.37674247500975       -0.08602693779941        1.13437887228188
C           -2.04685853692450       -1.08670430055699       -0.74378996217522
C           -4.25335345795500       -0.76789913085735        0.35190994091335
H           -2.41785315154224       -1.95286643825684       -1.28728180334018
H           -2.23431393030208       -0.19323391827622       -1.33100611165336
H           -0.97387696464864       -1.19614613061901       -0.60030002919102
O           -4.94884819175631       -1.91708846983632        0.37224450943714
N           -4.63203946136864        0.39729612495109        0.10082819539910
H           -7.91566576956272        1.19834561315831       -1.61051303261168
C           -5.91816578175658        0.97968855821427       -0.16496452316189
H           -6.08670798535023        1.64989119097255        0.69366805736136
C           -5.74168506427581        1.85719320976009       -1.42333207148407
C           -7.15370120669132        0.09123835087010       -0.22329800571165
H           -4.67485597722927        2.07221792345701       -1.50379641997618
H           -6.00983036505676        1.27848588669951       -2.31272945486199
C           -6.50493476828026        3.19234503549470       -1.38418683360937
O           -8.14306365562864        0.41980323784957       -1.08832191548884
H           -7.49152469741441        3.05204571299771       -0.92379740110384
C           -5.74541622168419        4.21490327553318       -0.54140970864680
C           -6.70431937126878        3.72835959794056       -2.80165430908997
H           -4.79086264814864        4.45089414070402       -1.00623913567139
H           -6.31936982362877        5.13401283690259       -0.44842112074439
H           -5.55207711819593        3.82921448671709        0.45636323556481
H           -7.29175869089037        3.04101784928200       -3.40837213454990
H           -7.22165791373128        4.68448002694082       -2.77718204733380
H           -5.74160954938087        3.87345452208976       -3.28677183103730
N           -7.25087742491910       -0.88391698629447        0.56106042284091
H           -6.44835027206756       -2.12967979322786        1.68827828851962
C           -8.40656035879774       -1.74479837478101        0.61039561916493
H           -9.33894444587062       -1.17251931853765        0.69011919095100
C           -8.48990402802247       -2.66951854584545       -0.61061180891554
C           -8.24202218507920       -2.62853223039632        1.85397252402441
H           -7.54802504069172       -3.20075351480497       -0.73284811227722
H           -9.29276940698860       -3.38740320293871       -0.46637162169032
H           -8.68600635299799       -2.08436985659690       -1.50535444504672
O           -6.98678895285220       -2.71739797247096        2.27258069762534
O           -9.15512155538290       -3.20873506395430        2.37487051281967
