42
 energy: -62.486133514429 gnorm: 0.000479386665 xtb: 6.7.1 (edcfbbe)
N           -1.40629884749473       -0.71884626695217        0.92317840471437
H           -0.49017087658492       -1.08984851492131        0.70198026182498
H           -1.74088889223031       -1.20617215539572        1.75024956124318
H           -2.32972690109252        0.96262129136877        1.14359040999804
C           -2.33819102182334       -0.93229673387828       -0.18381434616436
H           -1.83040024507517       -0.61018106565206       -1.10252442428603
C           -2.81708731948086       -2.37233822785753       -0.34950489889842
C           -3.50715974336934        0.01758808446536        0.02956512518524
H           -3.29089034827056       -2.71524209682277        0.56779008427645
H           -3.55081948073748       -2.41762122234652       -1.14671306746673
H           -1.98162958372507       -3.02828381718312       -0.58607274908065
O           -3.23694823750024        1.08642137878713        0.79842540154671
N           -4.61845641605141       -0.23009172070014       -0.50327449760276
H           -6.83139080576781        0.32793573238371       -2.49446971598786
C           -5.74013818400214        0.67524043549660       -0.32453246428798
H           -5.80901882182120        0.97164474494738        0.72977555896678
C           -5.58448310088139        1.93183048573152       -1.19091702503563
C           -6.95825982384217       -0.16192197592754       -0.65223169731926
H           -4.70425220919992        2.46565543969231       -0.82693168502521
H           -5.36799892882254        1.63815693571006       -2.22465794384620
C           -6.79194968739989        2.87753484204606       -1.15569533704967
O           -7.39234381573647       -0.21305714061938       -1.92484256613317
H           -7.69444245112372        2.33304516997771       -1.45631761452784
C           -7.02074230195332        3.43821114838532        0.24599389359122
C           -6.56691214247696        4.01887009000352       -2.14715812644106
H           -6.11473763425613        3.91129270561614        0.61845889140318
H           -7.81373049267035        4.18220256125638        0.22610237690000
H           -7.31344279648170        2.65325155637837        0.93827927715365
H           -6.42239434639853        3.63840577260550       -3.15651522713335
H           -7.42298570036442        4.68893319778469       -2.15614913353036
H           -5.68583106211365        4.59263729980573       -1.86785253391922
N           -7.45539656448618       -0.86058178432366        0.27019460165447
H           -7.59327403900329       -1.25050103041375        2.01758364919716
C           -8.55185008374141       -1.77521185063113        0.04407057540644
H           -9.36110101462354       -1.30788510709361       -0.53080580973098
C           -8.09559511163270       -3.04431726516808       -0.68456644255653
C           -9.09264826503867       -2.17798968156186        1.42470238899051
H           -7.25359068554121       -3.48906683590391       -0.15813185529688
H           -8.91635806031448       -3.75549039253799       -0.71350442558470
H           -7.78950664195592       -2.80029435238678       -1.69821336329874
O           -8.32645467020238       -1.76907522228177        2.42885319000550
O          -10.09669390113375       -2.81719023542184        1.57553839390158
