42
 energy: -62.486133509861 gnorm: 0.000480069523 xtb: 6.7.1 (edcfbbe)
N           -0.74910356145321       -0.17709373516847       -0.71183477764124
H            0.01173533978591       -0.69779121362054       -1.13053186937571
H           -0.47498274788380        0.05540902311313        0.23899636140330
H           -1.88156698224006        1.29309964723825       -1.08248264770467
C           -1.98047626384323       -0.96412663316364       -0.69460681801560
H           -2.08684507441991       -1.42026349277732       -1.68796315835320
C           -2.01803982901932       -2.05779978259185        0.37072436212897
C           -3.14249578797261        0.01931150675290       -0.53601780108760
H           -1.88726559111052       -1.61982028243345        1.35819071917507
H           -2.97784638245852       -2.56254907629821        0.34851796669171
H           -1.22613322476444       -2.78369588374136        0.19739064517397
O           -2.83651187190540        1.28306571485571       -0.85847797965842
N           -4.24104148031329       -0.43023465164940       -0.12390799286060
H           -5.16027069475236       -1.55068357978904       -1.42952559013051
C           -5.50027417163458        0.25893831801571        0.02917281604417
H           -5.67579399739284        0.35601699814512        1.10558734249051
C           -5.61007663567269        1.64533992096929       -0.63465532857142
C           -6.55725366745720       -0.67681764242280       -0.53406434935563
H           -4.82062830725938        2.27709405747870       -0.22631842059020
H           -5.41980691927020        1.52706855338433       -1.70486238302003
C           -6.95399121686286        2.35422801188796       -0.44343707971530
O           -6.13401819636907       -1.57654195351371       -1.43607677240644
H           -7.74863566838926        1.72694814530233       -0.85635813501293
C           -7.25433008089272        2.61923303949559        1.02961288530592
C           -6.93608267827731        3.67370627975281       -1.21451317898534
H           -6.46428103832249        3.22104617997227        1.47497223031414
H           -8.19269622231417        3.15934419413452        1.12732332562925
H           -7.34021205318542        1.69041379581158        1.58678408423905
H           -6.74607412880310        3.50196074930828       -2.27151376526396
H           -7.89305899535586        4.18028740883517       -1.11768373493112
H           -6.15873280005633        4.33021547884031       -0.82863081459619
N           -7.74981981243516       -0.58246589727550       -0.13788702651900
H           -9.07938127687021        0.41189331755299        0.63385965713441
C           -8.79279081295494       -1.43371473833927       -0.66753583304954
H           -8.69740847517094       -1.57624089158637       -1.75136160829583
C           -8.79319581645099       -2.80708389615010        0.01317061174846
C          -10.13644604833799       -0.75029191538718       -0.37582811149436
H           -8.84494328138856       -2.68503070710032        1.09320619827201
H           -9.65608174180194       -3.37445264762884       -0.32381185605401
H           -7.88332328174057       -3.34534210853758       -0.23989205776559
O          -10.03769152423776        0.29388915578944        0.43793493610594
O          -11.17831825849309       -1.13849459024237       -0.82673004181319
