42
 energy: -62.486133505082 gnorm: 0.000481003582 xtb: 6.7.1 (edcfbbe)
N           -1.74532134890088       -1.38033755872260       -0.47709936379000
H           -1.21091576125028       -2.23704482333759       -0.40292715302573
H           -1.13769242931120       -0.61378523311345       -0.20128595956269
H           -2.90611348484692       -0.53959698765584       -1.71465310790005
C           -2.92277300034150       -1.41992143132677        0.39074556620143
H           -3.38933670583035       -2.40493568801198        0.26500563343007
C           -2.63123902103563       -1.19125116786059        1.87100548171063
C           -3.92404073638455       -0.40011336126855       -0.15034009744697
H           -2.13824304253073       -0.23134470952383        2.01313888614038
H           -3.56610797983434       -1.18171172533617        2.41985136224941
H           -1.99071103177597       -1.98007328014397        2.25985012477671
O           -3.72400462955708       -0.07364630332099       -1.43868180779362
N           -4.83639422442780       -0.00889504374809        0.61555889285304
H           -8.26536489494370        1.58681571043278        0.54674374327400
C           -5.92121483719789        0.88660665285869        0.30954683053369
H           -6.02737490246062        1.51367706455599        1.20711900848474
C           -5.72628096433770        1.78531414951895       -0.92991653669181
C           -7.17236604634842        0.04143935400663        0.19344903661012
H           -4.72862487700790        2.22286796745769       -0.85179161572207
H           -5.73542412847653        1.14694116025046       -1.81426463713349
C           -6.73831457418239        2.92065166221094       -1.12700528370342
O           -8.37080284739660        0.65130950761447        0.33544692359923
H           -7.74231672956637        2.50162497060848       -1.25894115280852
C           -6.74704250248088        3.90831591834541        0.04020890036247
C           -6.38769659172657        3.66630684208085       -2.41569773035689
H           -5.75145325903098        4.32243154364113        0.18543747930044
H           -7.42918219322806        4.72962633845265       -0.16963172821788
H           -7.05873530955416        3.44904123027878        0.97697745070300
H           -6.39301129373445        2.98777632112408       -3.26513424241593
H           -7.10706491697311        4.45974574172214       -2.60566234245061
H           -5.39804242829174        4.11121334265097       -2.33909229081041
N           -7.05239643583174       -1.19703544410906        0.01955182556632
H           -5.98237718428105       -2.58721804441140        0.22159759865713
C           -8.16570761709264       -2.10683402504955       -0.07135813693713
H           -8.92261031797811       -1.90666193911714        0.69857806177792
C           -8.83565496279436       -2.05918551146028       -1.44787638008617
C           -7.59244711981475       -3.51698062117312        0.15650739781705
H           -8.08756493700540       -2.18796038619535       -2.22745997047814
H           -9.56491999382322       -2.86132907638535       -1.51787176043146
H           -9.33314987698465       -1.10267380531943       -1.58715113947451
O           -6.27095910775607       -3.53282251285073        0.28334223009652
O           -8.27519701696409       -4.50237252685659        0.20311496740544
