42
 energy: -62.486133498734 gnorm: 0.000480805402 xtb: 6.7.1 (edcfbbe)
N           -2.23518253870369       -1.15611207654011       -2.37634010729570
H           -1.60509856280644       -1.87797846836964       -2.70269962195283
H           -1.77365009197818       -0.26039719073991       -2.50737365135925
H           -4.06218490453377       -0.65041501145325       -2.57944948730834
C           -2.57251803772826       -1.34417043198071       -0.96751019500012
H           -2.79710377247643       -2.40862246055020       -0.82336043708638
C           -1.47986068848794       -0.92325797332148        0.01296136686834
C           -3.87453432189890       -0.59276078938506       -0.71167739763554
H           -1.22456310247328        0.12364532038271       -0.13946157056074
H           -1.84264527293647       -1.04205925222345        1.02832939837681
H           -0.58754038028290       -1.52999818866596       -0.12675023758948
O           -4.58524640084347       -0.32295805465674       -1.81589555811577
N           -4.19581766955774       -0.32045492172271        0.47423162458419
H           -6.13741796522751       -1.43866501400772        2.31396858027882
C           -5.44493509235160        0.33617030654818        0.82492274915836
H           -5.36140146480961        0.53304031734565        1.90339381720706
C           -5.70452790053557        1.65236359245996        0.08698101713060
C           -6.54327965736340       -0.67813882162058        0.59707396326349
H           -4.80613275215151        2.26906465098166        0.16157844393661
H           -5.88060773528524        1.42191319417307       -0.96204610713399
C           -6.90932956776745        2.41923509551024        0.64317499765822
O           -6.76650922494293       -1.56652638835707        1.59352657676699
H           -7.72788610763658        1.70808119367438        0.79691754358990
C           -6.58664879136518        3.09877758522751        1.97248221960521
C           -7.36573705477157        3.46263794395078       -0.37484424432312
H           -5.77913795850561        3.81675365212404        1.84298685276970
H           -7.45916209626868        3.63015020381455        2.34612868261986
H           -6.28480722118257        2.37716776927647        2.72773840423409
H           -7.65879791743729        2.98434994619755       -1.30597002676955
H           -8.21691522506674        4.02193362605578        0.00662923372962
H           -6.56103965383566        4.16411069223627       -0.58522900179557
N           -7.14357947152367       -0.71209754613018       -0.50637039370073
H           -6.68053396484385       -0.68736536825940       -2.30686767031135
C           -8.13280043066402       -1.70931265634042       -0.82589860437279
H           -7.99904559160168       -2.63886625726902       -0.25569422227833
C           -9.54256073779385       -1.16577816994049       -0.57315907006935
C           -7.99342740708149       -2.03596665494164       -2.32094707494617
H           -9.66359933571900       -0.20842987376692       -1.07568580575709
H          -10.27270485170476       -1.86976171157419       -0.96229028391891
H           -9.70377137430243       -1.02883093449465        0.49355009344084
O           -7.10190895038262       -1.29243347368554       -2.96220035744012
O           -8.64203997727186       -2.89006306112418       -2.85991909788531
