42
 energy: -62.486133514640 gnorm: 0.000479283986 xtb: 6.7.1 (edcfbbe)
N           -1.37256456729790       -1.05598142030176        1.04187027746665
H           -0.41156174561931       -1.31458754029889        0.85471868043822
H           -1.79370997588220       -1.81040318054869        1.57739699181906
H           -2.43200371562777        0.40819453752997        1.70436918498187
C           -2.11478490879225       -0.85883212914963       -0.20220304479617
H           -1.49795754266165       -0.22446749198442       -0.85227177471546
C           -2.46960401861364       -2.14695652088155       -0.94234407336919
C           -3.36072778469802       -0.05571929918746        0.14436190271920
H           -3.07905347137831       -2.78685002989674       -0.30732127931255
H           -3.04003199958284       -1.90907750397629       -1.83350973586288
H           -1.56644533739208       -2.68376449152377       -1.22603024656530
O           -3.28552244497956        0.64244581170286        1.28705321273995
N           -4.34854339921155       -0.07212721411644       -0.63458916390549
H           -5.93158557652602       -0.35594853931592       -2.40743948851502
C           -5.54515855873277        0.68897376245606       -0.32877606012986
H           -5.60746303033295        0.93446126293121        0.73708386596700
C           -5.57654622831388        1.97695577713835       -1.16486695149663
C           -6.68767406223727       -0.23223088100318       -0.68172150705298
H           -4.79922804097199        2.64208274118893       -0.78315452993298
H           -5.31812211142347        1.73596140957635       -2.20064663525875
C           -6.93067474694975        2.69436759887325       -1.13551276640986
O           -6.73426434890477       -0.65347165758320       -1.95739036885304
H           -7.69589271533752        2.01678104173899       -1.53132176380262
C           -7.32832462209301        3.09171906226692        0.28360991574882
C           -6.86848662093169        3.92912942314588       -2.03320636602608
H           -6.53938170275912        3.67862008115768        0.74908000311305
H           -8.23535137637513        3.69107391018566        0.26298377947988
H           -7.51859851318848        2.21318145328747        0.89373616118462
H           -6.60072781295263        3.65650892777198       -3.05186695518981
H           -7.83303356376949        4.43007798238165       -2.05663612549622
H           -6.12654252556095        4.63128845453937       -1.65876930851003
N           -7.46839415468946       -0.63232352324354        0.22172281432155
H           -8.19148948187857       -0.42854368342477        1.86938463919121
C           -8.54424504597417       -1.55884372514986       -0.05947924251651
H           -9.07525006730076       -1.29881953783984       -0.98362982195110
C           -8.03410970092133       -2.99964053370791       -0.17196486958236
C           -9.53027107209795       -1.48170887516635        1.11530888383862
H           -7.47165327091439       -3.26417479549835        0.72127345624900
H           -8.88078985971797       -3.67273385945650       -0.27268879191607
H           -7.38752650912779       -3.09620620644864       -1.04039673175061
O           -9.07344706779248       -0.77502348540350        2.14251853599165
O          -10.59944795633788       -2.02541293400709        1.11020032033727
