42
 energy: -62.486133517427 gnorm: 0.000479316770 xtb: 6.7.1 (edcfbbe)
N           -0.88635383351557       -0.44575412145461       -0.70098993056741
H           -0.14136530569623       -1.08740621979488       -0.94349949523170
H           -0.60245956640947        0.04660954120959        0.14188887472197
H           -2.00413584180406        0.85750804744420       -1.52612629315186
C           -2.13672052345091       -1.16366071049767       -0.45483985313069
H           -2.27265750831243       -1.86998853788246       -1.28488142838894
C           -2.18845375490556       -1.92575173619607        0.86604781325619
C           -3.26799583658539       -0.14248557402877       -0.56242142604021
H           -2.01826961733909       -1.24465993143751        1.69737218180244
H           -3.16983544193678       -2.37160848937062        0.98688662449175
H           -1.43045104649847       -2.70627832128690        0.88487270491644
O           -2.95801358895263        0.93238198146886       -1.31605471585859
N           -4.35699801881345       -0.39691337768567        0.00329529484887
H           -5.51517927864196       -0.59594557768796       -2.15671783176260
C           -5.56341098956760        0.39336159533950        0.02207089765957
H           -5.82197050827066        0.49617739514845        1.08077629818379
C           -5.53485680875156        1.77977162387720       -0.64452388651429
C           -6.63701678629183       -0.45919137501874       -0.62063883670197
H           -4.75776066284198        2.37717229723293       -0.16470430340148
H           -5.25824303270700        1.67062359492137       -1.69618796316881
C           -6.87373613340931        2.52304841858753       -0.56262797879662
O           -6.38826049616724       -0.89527268393083       -1.87108004656719
H           -7.65970433445970        1.88075077237230       -0.97480769732974
C           -7.24455657936754        2.87558720038245        0.87543929236759
C           -6.79694832439435        3.79397612077062       -1.40774927554205
H           -6.45972814148568        3.47418209079325        1.33346004085955
H           -8.16718815963177        3.45031032930084        0.89121845576058
H           -7.39735036617341        1.98144475960500        1.47291411858724
H           -6.56614807496387        3.55778025638654       -2.44427142735688
H           -7.74556507851552        4.32455142360503       -1.38233029501881
H           -6.02241819305768        4.45621533860186       -1.02627383747491
N           -7.69837507011361       -0.71126877272944        0.00624724996003
H           -8.88853047888835       -0.24979521568927        1.30514708558527
C           -8.75964383436606       -1.49574371948369       -0.58564227238401
H           -8.89821072026000       -1.26550822435205       -1.64965505113832
C           -8.49047475496511       -2.99676162699877       -0.43479109892093
C          -10.05420149834896       -1.15579513386475        0.16691751273813
H           -8.31131631999282       -3.23750485608286        0.61092525674322
H           -9.35384318471667       -3.55359026671168       -0.78767829991091
H           -7.61550498629542       -3.27494845785173       -1.01681812836654
O           -9.85576832460230       -0.43117883377093        1.26166248670243
O          -11.13657025213418       -1.52646679999808       -0.19289578372119
