42
 energy: -62.486133512028 gnorm: 0.000480303690 xtb: 6.7.1 (edcfbbe)
N           -3.23230467418211       -2.65380411370864        0.93977461980969
H           -3.85123259790093       -2.75307438758357        1.74006923945977
H           -2.36507332641744       -3.13260314134295        1.15089240482049
H           -4.60773223189171       -2.48657548767937       -0.38034732777907
C           -2.99344001440622       -1.24342526198155        0.64574756561260
H           -2.71773496702835       -0.64068115092880        1.52252114888937
C           -1.90015024215929       -1.11407102197998       -0.41544531186669
C           -4.30216183707064       -0.70183718469814        0.09473193352363
H           -2.16383142971877       -1.69360887872299       -1.29746301563570
H           -1.78576538351137       -0.07114023581004       -0.69514798141766
H           -0.95255985378285       -1.48162393592248       -0.02783448113853
O           -5.04291070058634       -1.62258322465633       -0.54552126427056
N           -4.56549806641564        0.51820657694164        0.23728819368817
H           -7.21426260871817        0.58928301013634       -2.10985210194317
C           -5.82732431899769        1.14178383280321       -0.10862562460629
H           -6.06699334278700        1.75909731225981        0.76619889418244
C           -5.60579620791186        2.06178594019887       -1.31699962471488
C           -6.96071833176403        0.13541809375643       -0.26755341178509
H           -4.65563427174184        2.57374238109080       -1.15237456496454
H           -5.47318553785040        1.45194334489082       -2.21790889319920
C           -6.71173090165152        3.10846330291968       -1.52324805744357
O           -7.61170412894842        0.02286596838843       -1.43633909591731
H           -7.69319949878627        2.64722959340897       -1.36089045957620
C           -6.56325922717406        4.25784981084840       -0.52886736665525
C           -6.65967505382025        3.64888933796232       -2.95216925465993
H           -5.61704629567993        4.77161252648877       -0.68378254198459
H           -7.36926410862350        4.97628015291845       -0.65892503886556
H           -6.59346442383779        3.89609491882858        0.49554008264998
H           -6.82281676032960        2.85807694664165       -3.68239659905135
H           -7.42489284979075        4.40722558981927       -3.09908103993926
H           -5.68943539337548        4.10016109585466       -3.14827487871993
N           -7.20016840007288       -0.55100799421363        0.76097945589627
H           -6.19103539811437       -1.18939768298644        2.03813595124367
C           -8.07151122686994       -1.68533221000429        0.90260409169499
H           -8.98020552734723       -1.35089885370653        1.42339858399457
C           -8.46044171176043       -2.45467834308729       -0.35846039859471
C           -7.34342734737878       -2.63698594349745        1.87882237891692
H           -7.57049703643275       -2.67126977438012       -0.94449542818679
H           -8.92709243551902       -3.39053121365684       -0.06195679128604
H           -9.15141752662760       -1.87940368762046       -0.96723531281909
O           -6.25191809797564       -2.10365468189289        2.42233532177842
O           -7.71767798556635       -3.74984700421755        2.12109110397461
