42
 energy: -62.486133509407 gnorm: 0.000480049014 xtb: 6.7.1 (edcfbbe)
N           -0.75246009104737       -0.07666594514890       -0.23735103767501
H            0.08617426133223       -0.22345648072912       -0.78560095160785
H           -0.63659596238745       -0.57999523778424        0.63814499431282
H           -1.92109547500095        1.36518373538953        0.32423866066404
C           -1.93346154957337       -0.57150270063154       -0.94330464409387
H           -1.88210959756979       -0.18975150693126       -1.97122520351820
C           -2.06991719055648       -2.09213022276711       -0.98128915609256
C           -3.14598723937600        0.08712799817140       -0.30253236765659
H           -2.08016174268426       -2.49490416203865        0.03010714586492
H           -3.00149455314269       -2.35740575865836       -1.46969437457411
H           -1.23918561606054       -2.53445346067114       -1.52712284654150
O           -2.89082859925051        1.23702758553143        0.34220077619602
N           -4.27922578509994       -0.44651070888463       -0.41773484908032
H           -5.25110415771231       -2.08498401250561        0.78197655560645
C           -5.46862964186130        0.17331151635736        0.14180570866288
H           -5.30196472947766        0.41358684880325        1.20321134500312
C           -5.85375642755680        1.45147881435927       -0.61249191249036
C           -6.53470717057513       -0.89774707447856        0.05212774916719
H           -4.96403428656340        2.07742938708223       -0.69678277827196
H           -6.16190125124784        1.15907334916980       -1.61713896659565
C           -6.96807401303789        2.25806508961628        0.06415076245829
O           -6.20371726299103       -2.07989027254302        0.61245561837030
H           -7.74659447155296        1.56607805209604        0.39738633240911
C           -6.43838370608199        3.02439040620634        1.27461119528654
C           -7.57905809284723        3.23479255212445       -0.93923806469871
H           -5.67186662056005        3.73304601496251        0.96763317645334
H           -7.24324697663815        3.57623925655513        1.75468214324571
H           -6.00501194596743        2.35252973019251        2.01118464665765
H           -8.01501152507771        2.70578340935666       -1.78309162044350
H           -8.36084615982621        3.82468158099605       -0.46670225153003
H           -6.81769949252840        3.91535753178551       -1.31506193005597
N           -7.60318634029658       -0.70297179600751       -0.58054701516172
H           -8.57491329156939        0.32315822093762       -1.69223319661460
C           -8.60957456170032       -1.72621955259666       -0.73745511215190
H           -8.16904210038989       -2.68682221224755       -1.03370409659746
C           -9.42404290097321       -1.93303392864896        0.54414750056594
C           -9.56039061984620       -1.24942536136778       -1.84708389759542
H           -9.83566487803518       -0.98353063399493        0.88111970011603
H          -10.23948780893910       -2.62198200733607        0.34277591529414
H           -8.78780261713403       -2.34204899339094        1.32488483509682
O           -9.34919371786535        0.00725541267629       -2.21792180964243
O          -10.42093535411954       -1.94219031752828       -2.31460164994427
