42
 energy: -62.486133514823 gnorm: 0.000479681243 xtb: 6.7.1 (edcfbbe)
N           -2.28727563165361       -1.92242435494371        1.96403068495241
H           -1.38578505122841       -2.09555754229732        2.39155243304168
H           -2.40571493752153       -2.59955452273484        1.21512343394205
H           -4.12050564343533       -1.66519852372884        2.42557672038332
C           -2.35991931227103       -0.56708725900266        1.42034307800545
H           -1.98585925467986        0.11510285599575        2.19506431900318
C           -1.56924125577334       -0.35110655851775        0.13282361717200
C           -3.83668568400485       -0.24496418636919        1.22554148017751
H           -1.90489591224514       -1.04830088653941       -0.63197858300808
H           -1.73859957049671        0.65749116404253       -0.22782157996762
H           -0.50601573323425       -0.50076222533978        0.30921092273363
O           -4.66927457695052       -0.98319767208586        1.98607417958773
N           -4.16735543857641        0.66438956659376        0.42873725759278
H           -6.50217180348953        0.68613433015358        2.36526458719870
C           -5.52011219441227        1.08250267129933        0.13261196860525
H           -5.67992351870217        2.01381442465671        0.69710248547679
C           -5.55857577673010        1.39838606576459       -1.36889458989421
C           -6.60221619138444        0.10149605067446        0.53649729768022
H           -4.70639304598233        2.04474858692629       -1.58302790420853
H           -5.41261213846819        0.46154713493042       -1.90665474597182
C           -6.85041296053011        2.06626577498158       -1.84862508830347
O           -7.09243939867938        0.18214016621399        1.79236680785444
H           -7.69997518426156        1.46808219023476       -1.50582257820626
C           -6.99511842304983        3.48429835247677       -1.30022371101596
C           -6.86672887057111        2.09703799402633       -3.37599852124152
H           -6.13781112359073        4.09085334277454       -1.58473308795653
H           -7.89232442305337        3.95149317996070       -1.69985073274353
H           -7.07484727548309        3.48590076187286       -0.21603636730942
H           -6.80875727367672        1.09027015995350       -3.78205759668752
H           -7.78184161112051        2.55944711656846       -3.73836487379071
H           -6.02156628991871        2.66948279584178       -3.75225389861761
N           -7.06049146260984       -0.70235662290771       -0.31764746140538
H           -6.85263689731659       -1.57338877681621       -1.87278560206519
C           -8.08911263168450       -1.66136832942238        0.00811751157376
H           -7.93640457237654       -2.10534007045192        0.99995110613344
C           -9.48378083425717       -1.02750963209925       -0.04137145695324
C           -8.02078696801453       -2.76729290724998       -1.05495332231057
H           -9.64361647566194       -0.55393228799641       -1.00829406809701
H          -10.23451247102572       -1.79891502476405        0.10474830086319
H           -9.57619450363250       -0.27873176608764        0.74142712408195
O           -7.24246963811718       -2.45582585631835       -2.08522763853165
O           -8.62522929550952       -3.80009568952834       -0.97060751272011
