42
 energy: -62.486133513682 gnorm: 0.000479689925 xtb: 6.7.1 (edcfbbe)
N           -2.51824943598182       -2.56089831251677        0.54523971153361
H           -2.87969273193068       -2.78323720166173        1.46741489213237
H           -1.57758848325945       -2.93244881462535        0.48042541243396
H           -4.15138836005778       -2.52064933853927       -0.48223334925029
C           -2.52166907365182       -1.11554704454443        0.32675738655117
H           -2.19406937892311       -0.53122776073728        1.19743507924725
C           -1.63310575438660       -0.76976360839390       -0.86865689109872
C           -3.95371294009201       -0.71878595323504        0.00029642772591
H           -1.94843335453032       -1.33138069941761       -1.74560688962470
H           -1.70665018156971        0.29290680962763       -1.07964186086450
H           -0.59521156335361       -1.01427700891344       -0.65230057780230
O           -4.69025780580692       -1.70475229585635       -0.54137996729994
N           -4.31714380747972        0.46141251784973        0.21965470316457
H           -6.29285277826342       -0.02037930020467       -2.21102916975617
C           -5.63579764528390        0.99257392954981       -0.04645620682855
H           -5.92446578366337        1.48161900307234        0.89083757516739
C           -5.50645962083722        2.05833492045738       -1.14563523563478
C           -6.69845868207611       -0.04783616080169       -0.34043537166132
H           -4.75660482620271        2.77540935961655       -0.80693579132650
H           -5.10688014908554        1.59643364346045       -2.05584361779980
C           -6.81138273285172        2.79675329409859       -1.46898404419561
O           -6.92774942357962       -0.42936878836609       -1.61081038113877
H           -7.58079033076869        2.07020599424250       -1.75372574596052
C           -7.32406997210220        3.58432451165582       -0.26579168529412
C           -6.57881518777660        3.73713918137727       -2.65124097204627
H           -6.55606984743303        4.26222050062678        0.10069669986056
H           -8.19409882855476        4.17240232880136       -0.54877634709305
H           -7.61739010268973        2.91905719088670        0.54197715804468
H           -6.23562367854553        3.18875483406783       -3.52634594995533
H           -7.49961344305968        4.25232445003534       -2.91326070834463
H           -5.82863069045244        4.48326763310581       -2.39829718451455
N           -7.33531570548319       -0.51846393920743        0.64123862663991
H           -7.84541469781946       -0.41238436024068        2.36934251982207
C           -8.35411990499759       -1.53077028097821        0.47532658253711
H           -9.00618434341508       -1.31908910539554       -0.38122710506673
C           -7.74001274774210       -2.92397905259489        0.29797432382464
C           -9.19732832333077       -1.53674622763077        1.75766348194549
H           -7.08500271119409       -3.14788221454676        1.13766556236085
H           -8.53332787135846       -3.66473467013771        0.25552837470035
H           -7.15970891602907       -2.95320134939820       -0.62023665333339
O           -8.66090866829011       -0.82450432568903        2.74247202880758
O          -10.22594081025888       -2.14485794886429        1.86584015508085
