42
 energy: -62.486132300910 gnorm: 0.000620057221 xtb: 6.7.1 (edcfbbe)
N           -2.82519517242076       -2.40813345802791        1.21646569914611
H           -3.16275953286653       -2.33273036663548        2.17063252373455
H           -1.89590701127287       -2.81003085282472        1.24155851920080
H           -4.47859874401413       -2.62515940422147        0.30300207382621
C           -2.81406989229911       -1.10186346842731        0.56379932522388
H           -2.41529008548920       -0.29156888190786        1.18941963025272
C           -2.00349379836643       -1.18019794653127       -0.73028732460031
C           -4.26244991427621       -0.77033935707421        0.21625755257552
H           -2.39644137148042       -1.96776576254504       -1.36961055220677
H           -2.06584361651034       -0.23217004531362       -1.25556626534770
H           -0.95933855455120       -1.39508481810285       -0.51247674675629
O           -5.02888461903952       -1.85687510921611        0.03501646802680
N           -4.56495657450302        0.43836286966561        0.08048796329139
H           -7.64258222858850        0.88085803935245       -1.91386998673626
C           -5.84399306850792        1.04428662757431       -0.19239440136150
H           -6.00843012395061        1.70760913988212        0.67002684959542
C           -5.66807181572159        1.92416671256393       -1.44284907191645
C           -7.05630560824711        0.12434423721967       -0.24369434313818
H           -4.63660201103082        2.28067590087114       -1.42793390141793
H           -5.76627423057680        1.30572120862736       -2.34151742233543
C           -6.61066042678905        3.13794199888189       -1.49981123588758
O           -7.92687769306745        0.22034903390909       -1.27001138616698
H           -7.60607786004673        2.85708281897297       -1.13409252769938
C           -6.08925429288059        4.26299514992872       -0.60817140634616
C           -6.74480907843936        3.63491785728772       -2.93911593976949
H           -5.12642156092618        4.61592857945049       -0.97080897864257
H           -6.78382206441149        5.09981737529101       -0.60652383218385
H           -5.96412204045803        3.92215888261084        0.41641945315708
H           -7.17476734048615        2.87192150170609       -3.58618173275411
H           -7.38651817153811        4.51176929879616       -2.97943061047204
H           -5.76899644802225        3.90755681311219       -3.33505735913724
N           -7.20673639016227       -0.68481809511196        0.70718481357011
H           -6.39078220912668       -1.55516194660272        2.01242121486001
C           -8.28235667435005       -1.63867454061721        0.81593431240206
H           -9.24832416883637       -1.12927100675968        0.92057282270238
C           -8.35956502322759       -2.62153448717534       -0.35812634140124
C           -8.01065400589744       -2.44901282421479        2.09484808990871
H           -7.37685853159884       -3.05413372352386       -0.53312573765829
H           -9.06464437648832       -3.41169242857451       -0.11484383697614
H           -8.68616559226921       -2.10879864352211       -1.25834359231046
O           -6.79654081157089       -2.24671179080566        2.59318493694532
O           -8.80574852313624       -3.20876069105747        2.57554744611323
