42
 energy: -62.486133509579 gnorm: 0.000480037229 xtb: 6.7.1 (edcfbbe)
N           -1.16590581806614       -0.83510963591736       -1.35291250779685
H           -0.36352998170643       -1.45274456573970       -1.36437567186944
H           -0.81819649479694        0.11531612658464       -1.25642681423568
H           -2.74436970275924       -0.54149644645302       -2.33708808173716
C           -2.05743055363640       -1.15130297554981       -0.23662868588290
H           -2.18285327683120       -2.24152726182137       -0.21613620556519
C           -1.56826733923407       -0.67512207615946        1.12818326606912
C           -3.42221506828091       -0.56511863264248       -0.57226359483090
H           -1.40536201639805        0.40067801605692        1.11276757868853
H           -2.32259743988999       -0.89534189863088        1.87550975809536
H           -0.63740295693985       -1.17153814467157        1.39407585535661
O           -3.60527181180386       -0.34902283002036       -1.90710221559827
N           -4.24632909118721       -0.35616791653673        0.34394247752492
H           -5.29881812597703       -0.96308557677775       -1.94275394672068
C           -5.57213207118185        0.20306404987412        0.22049856786706
H           -5.93771046289654        0.29108633484133        1.24725904584352
C           -5.53559817230233        1.60127164338922       -0.43522147253535
C           -6.55920923292188       -0.66450913671085       -0.53041746398029
H           -4.75824192013101        2.18033787603230        0.06946857285501
H           -5.23941702079007        1.48701614991704       -1.48122898118106
C           -6.86184032072551        2.36457529776406       -0.36900261659469
O           -6.18764940964526       -1.25361015708782       -1.67460647175015
H           -7.65858752533795        1.72132343642122       -0.75504881040780
C           -7.21360592493890        2.76800305635095        1.06036769770047
C           -6.77493215117535        3.60775687854158       -1.25369344076216
H           -6.43899920261630        3.41077189279078        1.47415781980120
H           -8.15460866593594        3.31194882246119        1.07294417980682
H           -7.32066331022741        1.89741815911129        1.70094468778012
H           -6.56838202960174        3.33609383956327       -2.28659390629684
H           -7.71333227725599        4.15574541224060       -1.22703007452443
H           -5.98234725347720        4.26758061457549       -0.90598583607335
N           -7.73177431726701       -0.73472264738711       -0.06687490473257
H           -9.03900259276459        0.04608520375629        0.92259686979023
C           -8.77727398490695       -1.45736566363043       -0.75410516643437
H           -8.69538361769501       -1.36730031550399       -1.84539577647329
C           -8.76773979521704       -2.94297595885544       -0.37851708968605
C          -10.11571008912895       -0.85258553097745       -0.30577006675457
H           -8.80289922455248       -3.05159960639405        0.70355254033184
H           -9.63519833776255       -3.42955854387861       -0.81555367062356
H           -7.86118858184647       -3.41256861622413       -0.75227169869158
O          -10.00165609227313       -0.01405820231516        0.71758083056435
O          -11.16336543030378       -1.12536368434198       -0.82260703492480
