42
 energy: -62.486133518765 gnorm: 0.000479164969 xtb: 6.7.1 (edcfbbe)
N           -1.65371029488550       -0.80182389446522        1.43816325934103
H           -0.74823374995455       -1.22365822278750        1.26935807243334
H           -2.08395346421531       -1.30593867289595        2.20925674915231
H           -2.48004312379280        0.93205388837261        1.63631852936078
C           -2.50448455061276       -0.90700547598247        0.25159870341441
H           -1.91165017618626       -0.55022535098631       -0.60165898679052
C           -3.02071690834905       -2.31169294454415       -0.04573884171109
C           -3.64229847032601        0.08552403779224        0.43197169769663
H           -3.58275620729927       -2.69676129631918        0.80150152330491
H           -3.68007168752172       -2.27760875730396       -0.90551935111483
H           -2.19048797626947       -2.98353640995326       -0.25414522114804
O           -3.35649841749630        1.12266946996125        1.24579702585046
N           -4.72963176266246       -0.09028794866356       -0.17074745312641
H           -8.04913586419035        1.73798293702273        0.40770121834085
C           -5.80312530179769        0.86850869587013       -0.06122464090005
H           -5.67305136462328        1.53756952048919        0.80416772860732
C           -5.78122091500981        1.68699194383332       -1.37175756169801
C           -7.08679606145756        0.09349781628963        0.11667617626682
H           -4.76940941566788        2.08939402286419       -1.46616639161315
H           -5.92924885529054        0.97853522584444       -2.18931861555222
C           -6.77543138495533        2.84444047564772       -1.51508447253365
O           -8.22393820001597        0.79072771129400        0.35173012449271
H           -7.80073586875610        2.45900786902264       -1.48782880174458
C           -6.59235097858903        3.90034069803890       -0.42465588613674
C           -6.57517414822581        3.49127228835803       -2.88663644975753
H           -5.57891171632729        4.29477694083165       -0.45635209591910
H           -7.28437945999298        4.72551628433478       -0.57949160502825
H           -6.76319280109612        3.50358509647228        0.57474300828610
H           -6.72493642124311        2.76318806037165       -3.68016091230625
H           -7.28208439168938        4.30513253282523       -3.03019146975271
H           -5.56789145877305        3.89243221463063       -2.97426704283696
N           -7.04040871536072       -1.16041890449344        0.13340915597712
H           -6.00014627249787       -2.59140959252347        0.19702668515581
C           -8.17632164359886       -2.01357399307808        0.36190467768438
H           -8.79326980422375       -1.66778023159755        1.20166240499155
C           -9.06031455099095       -2.13853937130244       -0.88328372067543
C           -7.60279173448845       -3.40175018437219        0.69985476247292
H           -8.45434579924941       -2.42985579807123       -1.73872546125525
H           -9.82023497663368       -2.89531092976219       -0.70967621045384
H           -9.53930347485810       -1.18580987160031       -1.09500438690067
O           -6.29542406479384       -3.49006650751044        0.49861825974103
O           -8.27807882583674       -4.31211902987739        1.09511067657858
