42
 energy: -62.486132340888 gnorm: 0.000615227699 xtb: 6.7.1 (edcfbbe)
N           -2.11360637325869       -0.32235276565005       -1.52811232205076
H           -2.11660636627470        0.68584763810616       -1.64449593145282
H           -1.98193863895291       -0.73961180193090       -2.44288338034802
H           -1.52988336694013       -0.74415567970442        0.34353416809563
C           -3.37507635892383       -0.78064685598234       -0.93828048144627
H           -4.27085285310254       -0.39307686385053       -1.43665776014746
C           -3.40074118532012       -2.31006933383141       -0.97797948016602
C           -3.34616294742445       -0.34398889796440        0.52611656465134
H           -2.49439770492268       -2.71388156599571       -0.53144072796674
H           -4.26069194058833       -2.67297931772792       -0.42646667095532
H           -3.46804793444797       -2.65558117799506       -2.00712799812029
O           -2.14076293955817       -0.54049611568665        1.07842088283511
N           -4.22415810729004        0.15450230086371        1.27668186913152
H           -7.90229748234450        0.45643910486929        1.51859955686555
C           -5.55799645391665        0.59390379083205        1.01277270515334
H           -5.94665164437205        0.84702396087105        2.01141015153186
C           -5.50748568692481        1.88913024591301        0.16080570407656
C           -6.54265460666491       -0.36526156484079        0.38227429131945
H           -4.71273261116891        2.51071422889679        0.57892989819449
H           -5.21462169078615        1.60594121352527       -0.85195266800373
C           -6.80232242358499        2.70772600683375        0.09502649743801
O           -7.84660108189843       -0.20809239282403        0.82058282742312
H           -7.62924280466605        2.06293403722715       -0.22219647989396
C           -7.14425263999601        3.34608113500341        1.44082891211389
C           -6.64622392715253        3.80138067952765       -0.96167299329998
H           -6.34744451515038        4.02068134706583        1.74580564171900
H           -8.06543750456760        3.91906969153417        1.36137074986116
H           -7.27520661216876        2.60761964577389        2.22942313682807
H           -6.46129944338287        3.36623829455279       -1.94088967045829
H           -7.55040071270270        4.40224582742350       -1.02187450635530
H           -5.81430849026402        4.45597369543224       -0.71104660722946
N           -6.19995346212354       -1.21643850728626       -0.46498348440515
H           -8.67336952074111       -0.41567981943632       -0.79169797610570
C           -7.05122230380481       -2.15910983699925       -1.14871476084195
H           -6.36907578351290       -2.82326295513736       -1.69209326714576
C           -7.95043835918925       -3.00420004126301       -0.23873328188052
C           -7.90575543146749       -1.45360157277970       -2.21376352252785
H           -8.69508222899221       -2.39834705940837        0.27241426407663
H           -8.45791397932329       -3.75780387106825       -0.83591189568070
H           -7.33831149058722       -3.50124747755734        0.51081739331250
O           -8.74315552254694       -0.52215857458236       -1.75945671601207
O           -7.83178690201619       -1.72301851864757       -3.37836425881762
