42
 energy: -62.486133497702 gnorm: 0.000480943095 xtb: 6.7.1 (edcfbbe)
N           -1.15104495126779       -0.69679300027750       -1.33484752738734
H           -0.35177128234438       -1.31271104904080       -1.42046502657261
H           -0.80370931443571        0.21780095756319       -1.05791602050823
H           -2.70200663905693       -0.23890577731407       -2.32618633759583
C           -2.09184098671897       -1.19334037728119       -0.32957653112610
H           -2.23336316313848       -2.26595659173367       -0.51701034582686
C           -1.65298970496050       -0.98920381629267        1.11739543082248
C           -3.43039440323417       -0.52349339459879       -0.60563693703413
H           -1.47431439409943        0.06654383643553        1.30966347374079
H           -2.44059323906192       -1.32783925143510        1.78124450578336
H           -0.74125032486752       -1.54680577762360        1.32126877042851
O           -3.57567730727708       -0.11496987387637       -1.89817409933423
N           -4.28578781706827       -0.44497433734246        0.30369127966850
H           -5.30642984078544       -0.86934013558870       -1.97559149889919
C           -5.58039212675371        0.19032887321898        0.21265120840402
H           -5.93885767958681        0.24723506549084        1.24453285034095
C           -5.51921793323142        1.60955235365295       -0.38833166822340
C           -6.57897198702122       -0.63955415059928       -0.56352937620005
H           -4.71786007807642        2.14945586081876        0.12236224546407
H           -5.25040734166824        1.53659443915894       -1.44478030672537
C           -6.82660851752133        2.39801262846690       -0.26039392753993
O           -6.19174630712908       -1.18277629043059       -1.72818255216377
H           -7.64620464124093        1.78438264372876       -0.64710956701608
C           -7.13479771558254        2.76042507119401        1.18992141795318
C           -6.73457225629343        3.66876387304270       -1.10463942979826
H           -6.33363197380465        3.36699675082509        1.60792344397076
H           -8.05942549260086        3.32970355518973        1.24261317141906
H           -7.25300098378999        1.87155396030812        1.80294323659514
H           -6.56085230272356        3.42824102558210       -2.15119480171373
H           -7.65898418294394        4.23638145339742       -1.03475769982898
H           -5.91823227605567        4.29847484018108       -0.75603510463108
N           -7.75686381741354       -0.71729803982415       -0.11886160423025
H           -9.06968280366131        0.01465911219409        0.90030554798960
C           -8.79628409332157       -1.41443458349339       -0.84091806746316
H           -8.71692924884904       -1.26382502062206       -1.92577494696516
C           -8.76948665527162       -2.91837013301344       -0.54853900378883
C          -10.14029481914780       -0.84830648479572       -0.35972572435742
H           -8.80565814207604       -3.08775347825426        0.52570315452488
H           -9.63034291909747       -3.38964765562547       -1.01452742192878
H           -7.85641931354517       -3.35537601092917       -0.94556673078977
O          -10.03186624987709       -0.04823454139200        0.69453474937901
O          -11.18742603319919       -1.11722230035005       -0.87954723502456
