42
 energy: -62.486133498847 gnorm: 0.000480478626 xtb: 6.7.1 (edcfbbe)
N           -1.46576694090635       -1.57355025486667        0.44310410306374
H           -0.89748950804679       -0.82419272081012        0.82459112662945
H           -0.84041812533420       -2.29586513508644        0.10554600935379
H           -3.10361669255208       -1.45572507030278        1.48824899104276
C           -2.31290243981423       -1.07744671960483       -0.64188337238065
H           -1.81609038775953       -0.35385855952605       -1.30183262499660
C           -2.82582363506166       -2.24817602314929       -1.48155680212057
C           -3.50975611167460       -0.39973005756051       -0.00751673877772
H           -3.30311726204300       -2.98657743387821       -0.84051739418162
H           -3.55193179043335       -1.88294683758452       -2.20146790464433
H           -2.00379632171979       -2.72369811105582       -2.01233013387657
O           -3.81717048354858       -0.83511411738597        1.23486395831298
N           -4.15643125709057        0.46543382536150       -0.64776062699079
H           -6.20765036451409        0.10297498973762        2.04335463379779
C           -5.34538913547882        1.04489616782438       -0.05277598275207
H           -5.09934979279248        1.46616107200646        0.93368380420106
C           -5.85238295268083        2.13928856480865       -0.99753744412010
C           -6.39499976938736       -0.03101109676380        0.11154509010672
H           -5.05776412184545        2.87676319423467       -1.11912307932606
H           -6.02118234350617        1.65699515167167       -1.95981092757338
C           -7.14052209648635        2.82670433443883       -0.53604101945104
O           -6.81362799435897       -0.28864626455574        1.40245760048736
H           -7.89867175695616        2.05946911335698       -0.34303953659108
C           -6.93056314744987        3.64303983182887        0.73834392289019
C           -7.65622112726805        3.73253655903726       -1.65226960014831
H           -6.14122527046322        4.37753016635912        0.59110675066890
H           -7.84472121198382        4.17090104876271        1.00022710799002
H           -6.65972210591297        3.01095760156731        1.58086368762228
H           -7.84400699116194        3.15513253953701       -2.55362272859251
H           -8.58427902177772        4.21499312083764       -1.35487903235432
H           -6.92471452174708        4.50440609171516       -1.88230992737812
N           -6.80172272714883       -0.64349787919910       -0.89901668064317
H           -8.55834501398346       -0.51163423105429        0.98698937780257
C           -7.74476749842767       -1.72960319797617       -0.93680275373319
H           -7.72443395896989       -2.09346221290066       -1.97072818845152
C           -7.41312310301483       -2.89179161881105        0.01021733617108
C           -9.18637799232914       -1.27215822013439       -0.66457136773657
H           -7.49125823488900       -2.59221229323393        1.05302095951385
H           -8.09845703384649       -3.71540360750984       -0.17365969567220
H           -6.39584271144822       -3.22814438889042       -0.17819567818536
O           -9.38294404726619       -0.61124948568025        0.47556191808817
O          -10.08761425796796       -1.51451357687167       -1.41554194755306
