42
 energy: -62.486133520257 gnorm: 0.000478722291 xtb: 6.7.1 (edcfbbe)
N           -1.22675997402598       -0.52505853891001       -1.44283332547823
H           -0.60838170059727       -1.16230879376332       -1.93002866675599
H           -0.73142861279669       -0.18349954350700       -0.62355346384580
H           -2.41785177755547        0.93580238795104       -1.83181505714681
C           -2.45532976724935       -1.20390327965364       -1.03053750556492
H           -2.83587127833019       -1.74609623230617       -1.90561045582023
C           -2.28851221883136       -2.18112313083271        0.12932254410578
C           -3.49394034402835       -0.12799928777131       -0.72309890444460
H           -1.88259430141664       -1.66708990351893        0.99830690966039
H           -3.25967771880827       -2.58478870380220        0.39222894454641
H           -1.61892329517970       -2.99295653049097       -0.14813241835364
O           -3.26800015680190        1.03745162113688       -1.35775065122141
N           -4.43860959280755       -0.42420874131737        0.04333932356005
H           -7.64513095391089        0.27798615961732        1.70070496216644
C           -5.56634066384861        0.37968539262672        0.42652088818058
H           -5.50246833800357        0.46853747530039        1.52189255185614
C           -5.67663406645751        1.78131693804441       -0.20919426841057
C           -6.80225768995053       -0.42506969097214        0.08614899521812
H           -4.75208710206530        2.32147090579210       -0.00172588800709
H           -5.74541423714466        1.63990788091147       -1.28864361089980
C           -6.86169909697922        2.63137028165448        0.26368928738717
O           -7.87249125370230       -0.29287668176434        0.95700772616725
H           -7.79312715549876        2.06814629912330        0.14073179614804
C           -6.71553918984192        3.05547280439798        1.72550173762317
C           -6.96374470402907        3.87574402063015       -0.61784317776143
H           -5.82496159622452        3.66850876123101        1.84730093291227
H           -7.57748306024605        3.64208457746531        2.03622512160927
H           -6.62890435999367        2.20457495045140        2.39953913928797
H           -7.13093871590011        3.59557191518337       -1.65468320015982
H           -7.79035079918848        4.50491174325954       -0.29542682114208
H           -6.04573189430740        4.45668758990679       -0.56225163462024
N           -6.80720188134143       -1.14767210447124       -0.93108578830132
H           -9.16097139586131       -0.27015378963354       -0.31094696800202
C           -7.87477633216192       -1.98781548008064       -1.40620415894220
H           -7.44288032434942       -2.56265776470737       -2.23361958170635
C           -8.43114146674276       -2.96038652756428       -0.35701526262002
C           -9.04091635134975       -1.18072279865867       -1.99763509793742
H           -8.92383602136881       -2.43229768739333        0.45644323670831
H           -9.14616175316181       -3.63052287978409       -0.82790071907229
H           -7.61366509157974       -3.54671339752751        0.05626168991555
O           -9.59580051284534       -0.28176160698003       -1.18470057865022
O           -9.44765450455314       -1.35957477659784       -3.10999351807329
