42
 energy: -62.486134082472 gnorm: 0.000281190423 xtb: 6.7.1 (edcfbbe)
N           -2.41778319458687       -2.41736450982504        0.82265622181766
H           -2.65250007512882       -2.38804959145574        1.80959375829627
H           -1.49305572095812       -2.82221921336894        0.73424167397510
H           -4.18050179578888       -2.57529537892120        0.03015624784403
C           -2.45468452867249       -1.07437877991707        0.24693968506920
H           -1.99778657838111       -0.30286234439278        0.88173716351226
C           -1.75858589035444       -1.07734718358162       -1.11486499661010
C           -3.92063048296690       -0.71843851446210        0.04510658402951
H           -2.20921340383260       -1.82334943232176       -1.76550491831405
H           -1.85570137843130       -0.09835505402585       -1.57407341421461
H           -0.70167975511991       -1.30840381735114       -0.99966466042810
O           -4.72469130414803       -1.77803144249847       -0.13742033195708
N           -4.24480370043411        0.49291014253327        0.01836313054369
H           -6.30548328711760       -0.00935435310316       -2.26924914890769
C           -5.58497085214390        1.00803838562028       -0.14700718165175
H           -5.81907164185021        1.48344515386969        0.81305598320065
C           -5.53896391327061        2.09061682301143       -1.23624431429738
C           -6.65988032367365       -0.03231259840357       -0.38773161731750
H           -4.78065904288693        2.81433645936016       -0.93368347715978
H           -5.18911317730220        1.64960692362150       -2.17645187889679
C           -6.87388874296636        2.80952200847409       -1.46716735564323
O           -6.89865608299898       -0.44799006533623       -1.64704968395994
H           -7.64489061463970        2.07275536571724       -1.71998341207589
C           -7.32874175599567        3.56404685937826       -0.22026930154377
C           -6.73062212022480        3.77621536600458       -2.64223514145452
H           -6.55017676077823        4.24426334668366        0.11802095101160
H           -8.22021760703685        4.14628757790546       -0.44161545377177
H           -7.56905375269188        2.87784072315588        0.58737368167162
H           -6.43304770143158        3.25072681410518       -3.54747244126654
H           -7.67419180922205        4.27990516784849       -2.83674029959136
H           -5.97866236811064        4.53038159567336       -2.42075501597010
N           -7.26977241595922       -0.49415926147433        0.61438751065110
H           -7.74652773332208       -0.35778729267416        2.34909861028157
C           -8.29835539067459       -1.50177256763062        0.48579852650092
H           -8.95711912821149       -1.30733141522824       -0.36982113272867
C           -7.70291214454744       -2.90673696725056        0.34222899923662
C           -9.12763808174144       -1.46519851516891        1.77638528849720
H           -7.03813593104149       -3.11254502639612        1.17831728492415
H           -8.50600565271135       -3.63810143486015        0.33299042773777
H           -7.13568036913966       -2.97063345715862       -0.58201661117816
O           -8.56470145978642       -0.74588252539241        2.74145156581273
O          -10.16743363350425       -2.04902362831395        1.90805341258643
