42
 energy: -62.486133512985 gnorm: 0.000480352375 xtb: 6.7.1 (edcfbbe)
N           -1.04477927550379       -0.21873188737704       -1.53081104250135
H           -0.32178531765361       -0.81522339291986       -1.91327555542716
H           -0.59898195252521        0.43519327761745       -0.89319710232931
H           -2.50079208158022        0.84063205591340       -2.11224531956401
C           -2.05321754239655       -1.00013319832885       -0.81816744822104
H           -2.29653301620500       -1.86864458464981       -1.44357477224390
C           -1.61373153693515       -1.47955953085193        0.56409125100615
C           -3.32107601588456       -0.14646370787511       -0.74920114001806
H           -1.36623591009268       -0.62716351168411        1.19370629491257
H           -2.41655596894490       -2.03252911141661        1.03958262080577
H           -0.73979993171020       -2.12275789106889        0.48036376803136
O           -3.35515055589392        0.85815473092969       -1.63087314910029
N           -4.20131810194880       -0.46210598539127        0.09097858448908
H           -5.13283818156148       -2.14886030911740        0.36295390904611
C           -5.50650040218378        0.14300234597232        0.26787661950612
H           -5.59754548653068        0.27580181096548        1.35746312271742
C           -5.80513779336291        1.47723242371854       -0.42055515810687
C           -6.49849664183557       -0.94870003180167       -0.10298142608380
H           -4.91135244044007        2.10039198131990       -0.38063165399566
H           -6.03161870732857        1.28494998439120       -1.46957603863776
C           -6.96464731874619        2.24095731464051        0.23395806655257
O           -6.07380510418066       -2.20529419344888        0.11273974109740
H           -7.75395305847417        1.52792317650154        0.48650204500094
C           -6.50960627382525        2.94054707210986        1.51374019547050
C           -7.52495041083366        3.27156240670754       -0.74415799658007
H           -5.73983601239342        3.67687006928250        1.29070344301011
H           -7.34654436267196        3.45369667222437        1.98170545551620
H           -6.10651585542212        2.23132955198870        2.23272137922668
H           -7.90424218631909        2.79208520378636       -1.64240251678024
H           -8.33899157830765        3.82788313483286       -0.28589633573257
H           -6.74921994151688        3.97740090230575       -1.03320893877993
N           -7.63341155321596       -0.65590709357364       -0.56092195939386
H           -8.66369681495051        0.52543546591536       -1.47761920742971
C           -8.59564977401222       -1.67203817531271       -0.92017693467701
H           -8.12017905919020       -2.55282027035289       -1.37062059552824
C           -9.41226777124801       -2.11872912717753        0.29726015705999
C           -9.55391431741510       -1.04564280025991       -1.94441628934128
H           -9.85563665729297       -1.25286779377151        0.78493860353290
H          -10.20324663587667       -2.78910843315873       -0.02687917994880
H           -8.76800972672976       -2.63376036919160        1.00549642626901
O           -9.40831741248677        0.26736206273315       -2.07125574389015
O          -10.36610259220621       -1.68339604881459       -2.55520114829795
