42
 energy: -62.486133513458 gnorm: 0.000479632220 xtb: 6.7.1 (edcfbbe)
N           -1.93090189735109       -0.93372866482944        1.47189132501243
H           -1.00347491707715       -1.32702612028794        1.36726178623798
H           -2.41754094601243       -1.48670981251305        2.17273245684376
H           -2.84804495938974        0.72013773034972        1.75429527317448
C           -2.66745803635747       -0.98888182572582        0.20893232340815
H           -1.99642162922552       -0.62633560198112       -0.58017399800528
C           -3.18599070075225       -2.37670448253505       -0.16418035074859
C           -3.81265971178502        0.00780739347502        0.31382640225373
H           -3.80674275567020       -2.77311141590014        0.63718809296763
H           -3.79245394724776       -2.30224676768483       -1.06040205461581
H           -2.35697838054386       -3.05898300169978       -0.34145352819828
O           -3.67049326769934        0.94141692482802        1.27154065033997
N           -4.79214198202916       -0.09154066739754       -0.46761949398713
H           -7.89898446699457        1.07595946800589       -1.86498031711361
C           -5.91067609927379        0.82378912973243       -0.37011491659702
H           -5.94415134629379        1.29311865302683        0.62460799489776
C           -5.78520581003785        1.91889013230925       -1.43829762494124
C           -7.14651657704300       -0.04993846843935       -0.50602887105469
H           -4.73656124680335        2.22225177224237       -1.47172617547654
H           -6.01212716330962        1.49415434069782       -2.42127565862376
C           -6.64707595426456        3.16042292519600       -1.15310706719839
O           -8.12334879848224        0.27635088343973       -1.37206847977919
H           -7.60969019579176        2.85441388940504       -0.72440339063420
C           -5.95368016491742        4.06825836039043       -0.13881968906596
C           -6.91295072878427        3.93054787339421       -2.44642160417100
H           -5.03320370187728        4.46791484315626       -0.55913829658461
H           -6.59840482159335        4.90165978699060        0.13039191473329
H           -5.70467150125138        3.52140055430730        0.76706998697824
H           -7.46314033938211        3.32546804061936       -3.16537567289374
H           -7.49563487230044        4.82560531696865       -2.24177461220852
H           -5.97317256776367        4.23240236057531       -2.90368551778782
N           -7.19045275963349       -1.06219144789149        0.23951217723443
H           -6.29796084363521       -2.06407606466802        1.35559852801600
C           -8.24239179277606       -2.04696868224724        0.24715902972377
H           -9.20644518719101       -1.59952683348687        0.51954950558923
C           -8.39496891769069       -2.78466437470473       -1.08735560642777
C           -7.85196658252091       -3.07465580601460        1.32651922045612
H           -7.42970408004606       -3.17513290704103       -1.40356690397609
H           -9.08976852250962       -3.61017160761146       -0.95993748769834
H           -8.77100773723316       -2.10819202062173       -1.84979994579518
O           -6.62866095182706       -2.88531646401039        1.80594445710246
O           -8.57236441429916       -3.96789317423235        1.67662135356385
