42
 energy: -62.486133512882 gnorm: 0.000479732610 xtb: 6.7.1 (edcfbbe)
N           -2.04618670211882       -1.50302541592972        1.34140119184901
H           -1.58311107729999       -0.68651503192023        1.72695913193918
H           -1.36129074430679       -2.24632766676339        1.27170057876154
H           -3.90861410932467       -1.25071324147003        1.94472300182473
C           -2.61941826628125       -1.20132038326719        0.03193616777831
H           -1.95885333613273       -0.61893381070784       -0.62574923988645
C           -3.00576491771194       -2.50506653996709       -0.66932145809843
C           -3.88523423659362       -0.40118026617151        0.27478082875469
H           -3.65850357958877       -3.09393460537919       -0.02843570611212
H           -3.52556785602735       -2.28408744975688       -1.59671981128383
H           -2.11728451401264       -3.09105376519739       -0.89455858518022
O           -4.49888352667521       -0.65639521381805        1.43859392544085
N           -4.27918293450101        0.41482984840081       -0.59949023834696
H           -6.38608123074880        0.33167546737804       -2.55691521378865
C           -5.54189977057266        1.11630385822425       -0.41847651873443
H           -5.64876321935834        1.43592394236051        0.62496412216864
C           -5.58279192251113        2.32056842555735       -1.36034039786229
C           -6.61844752168762        0.08603410398858       -0.67631619476916
H           -4.82493638353531        3.02910435145024       -1.02100684829234
H           -5.28146176593263        2.00424063859300       -2.36380574572457
C           -6.94574392113851        3.02187070997972       -1.41649715324221
O           -6.91384090410443       -0.21233453054452       -1.95817083896087
H           -7.70880537584958        2.30527707754270       -1.74149962035616
C           -7.35467627182052        3.56036830068383       -0.04723687133914
C           -6.89135117300182        4.15948137784383       -2.43521641244094
H           -6.57899187062617        4.20954388487167        0.35336843760250
H           -8.27324336830755        4.13648933725322       -0.13144311815840
H           -7.52889010697919        2.74916170190666        0.65463141808895
H           -6.61698281906541        3.78840277429302       -3.42058313187507
H           -7.85995165197769        4.64725228570108       -2.51252413947388
H           -6.15687848898162        4.90256421585693       -2.13234078533112
N           -7.10503941966769       -0.51658962799041        0.31358622224269
H           -6.98755669700972       -0.87150571680683        2.08798726523141
C           -8.03899208719666       -1.61143896406773        0.21351921101449
H           -8.94420793131090       -1.31944529115879       -0.33235416691724
C           -7.43314282737859       -2.85240326281222       -0.45348971842264
C           -8.41969334373608       -1.99060931697085        1.65447627024308
H           -6.51475571436686       -3.13373542363288        0.05874416485270
H           -8.14110793296064       -3.67401620248237       -0.39067145339828
H           -7.20887496456721       -2.64577401677836       -1.49647571025050
O           -7.62182174334960       -1.45666618207591        2.56892469291127
O           -9.32936501370614       -2.72804618413766        1.91827755641326
