42
 energy: -62.486133514126 gnorm: 0.000479722287 xtb: 6.7.1 (edcfbbe)
N           -0.88786843013444       -1.08829176937970        0.43621626872987
H           -0.58306868525657       -0.39903044094062        1.11514294521825
H           -0.06605107411582       -1.45019305238901       -0.03239432049938
H           -2.42115364842355       -1.83646515373351        1.20586291666371
C           -1.81864935572918       -0.49765480028842       -0.52515833305086
H           -1.57827926739078        0.53788162013213       -0.79827216351474
C           -1.87135027689863       -1.34832917812514       -1.79465612691949
C           -3.20164939463524       -0.51594765641585        0.11228583231020
H           -2.11147540241698       -2.38028421506745       -1.54686773119871
H           -2.63480314503512       -0.95747956169047       -2.46064225328906
H           -0.91166267575738       -1.32487718587576       -2.30633074644513
O           -3.32134406259615       -1.45590144457896        1.09220964034121
N           -4.05398163809364        0.30131469599947       -0.28701759914503
H           -5.00777903272560       -1.75823456577171        1.06545712386345
C           -5.44085535930074        0.50276736738593        0.05661848337898
H           -5.46265468414130        0.92853747614100        1.07547051626677
C           -5.98354073784545        1.55161946535733       -0.92585878504528
C           -6.34305315726709       -0.71997080323443        0.13477167162807
H           -5.14427344379457        2.18849118199952       -1.20806682908187
H           -6.32562153266251        1.03362209338047       -1.82148831912532
C           -7.11342233361130        2.42157831381607       -0.36310425537572
O           -5.93637371618134       -1.82071175971279        0.77774165462993
H           -7.82315455206045        1.77548994742201        0.16133521176094
C           -6.57516931145260        3.45989825519100        0.61989754099886
C           -7.84206511887981        3.12725709781093       -1.50549589822140
H           -5.88213639555823        4.13180947505114        0.11768427003528
H           -7.39065699570585        4.05234252944918        1.02826580603318
H           -6.05305112311344        2.99054521076092        1.45026550880242
H           -8.28140720677222        2.40944863325860       -2.19340252016902
H           -8.63902308405333        3.75657115228705       -1.11664881630977
H           -7.15000283623608        3.75687858495104       -2.06098353401834
N           -7.50320013582965       -0.62044106380747       -0.35428144703120
H           -8.63691786475663        0.18925562401768       -1.49968775375661
C           -8.45686964368102       -1.70269795678019       -0.28117579289932
H           -7.98916186290131       -2.68055867719395       -0.45284100338729
C           -9.17248835130293       -1.72796712482834        1.07435121264480
C           -9.50546753498956       -1.45252099777796       -1.37497238662883
H           -9.60769550541171       -0.75234434681251        1.28261978910877
H           -9.96303160128238       -2.47260512983630        1.04982356845616
H           -8.46500878512811       -1.97674592444809        1.86147975155365
O           -9.41600435610879       -0.24651104507104       -1.92254218277997
O          -10.33476794168076       -2.26157084816198       -1.68667582926795
