42
 energy: -62.486133515820 gnorm: 0.000479470991 xtb: 6.7.1 (edcfbbe)
N           -2.32022142299967       -0.98844472822655        1.86390618521105
H           -1.87709439504068       -0.11932034902270        2.14077495873314
H           -1.63108743196644       -1.72755640584451        1.91920932714126
H           -4.15542820659742       -0.79313284053210        2.39937634048346
C           -2.87296970204681       -0.88878133746681        0.51447777767750
H           -2.24285613177602       -0.32437670724430       -0.18621385579194
C           -3.12234456290551       -2.28973439459832       -0.04681327647817
C           -4.21469335273776       -0.18817597032096        0.62850838442902
H           -3.71720992332161       -2.87376757151894        0.65153790708038
H           -3.65680240515452       -2.21248380721853       -0.98833894825383
H           -2.17736253106624       -2.80151850838319       -0.21739963158017
O           -4.81136533228401       -0.33733507966331        1.82707949291746
N           -4.65023488994354        0.46930028926893       -0.34833531698454
H           -8.32322740381415        1.41044954252084       -0.73522724357323
C           -5.96444154397856        1.05849199396824       -0.36883806385875
H           -6.06844606892147        1.75311983193412        0.48329217396546
C           -6.11978337771547        1.83253266050626       -1.69498747767231
C           -7.07870749720716        0.04620674204365       -0.18842628416207
H           -5.14369300078980        1.81539670714467       -2.18057826085933
H           -6.81142696958921        1.30216081520276       -2.35481224896338
C           -6.56968944894700        3.29055290137004       -1.52894048543738
O           -8.33152265039333        0.48739227726401       -0.45265926081684
H           -7.41282680382192        3.34178400120951       -0.82533431124146
C           -5.43341530829940        4.14321874312587       -0.96957928165037
C           -7.03586700037375        3.85111592271221       -2.87132310372967
H           -4.60734423728323        4.17317095277105       -1.67602431927815
H           -5.77158092034433        5.16134470814214       -0.79007101209590
H           -5.06274926174342        3.73423956426722       -0.03299271556948
H           -7.88174471182618        3.28676963161589       -3.25906114225711
H           -7.33870471699626        4.89024908768863       -2.76581477669193
H           -6.22933617726286        3.80123447941600       -3.59896287481178
N           -6.84007709522770       -1.12154354174034        0.20585678331522
H           -5.87534124885001       -2.03197699270438        1.47908121400578
C           -7.88285350743288       -2.10480423891961        0.38117346337906
H           -8.77106959472751       -1.67187752871919        0.86335847841868
C           -8.30138203912068       -2.72907500490065       -0.95185009646088
C           -7.33234467272335       -3.19842687146004        1.30928036410448
H           -7.42031537199037       -3.07546778523626       -1.48796671422926
H           -8.95561529534301       -3.57423374822149       -0.75743846008198
H           -8.82377117389236       -1.99637417321899       -1.56148823993961
O           -6.13894104366606       -2.92202142312453        1.81914335310126
O           -7.93030282417089       -4.21032748799850        1.55235594208208
