42
 energy: -62.486133513972 gnorm: 0.000479297047 xtb: 6.7.1 (edcfbbe)
N           -0.76593831822005       -0.08932243808660       -0.03290390482064
H            0.11006941072373       -0.20266551023279       -0.52805237863232
H           -0.71794063854762       -0.66024400303729        0.80666039257852
H           -1.97473568083892        1.32120569445092        0.55050310843701
C           -1.89416683937477       -0.51444558112376       -0.85968070160648
H           -1.77189432412782       -0.04191848830366       -1.84317801997382
C           -2.02329244018417       -2.02528495724920       -1.04429793398704
C           -3.14798051064334        0.09020840657612       -0.24640522952436
H           -2.12510630969687       -2.51602594630172       -0.07790058159340
H           -2.90330909817437       -2.24337326513826       -1.64002451345798
H           -1.14405147640387       -2.42123645316938       -1.54824677639315
O           -2.94233380307414        1.19014374984623        0.49352481848850
N           -4.26819758754994       -0.43848265001163       -0.46696691481035
H           -5.16978477894288       -2.18721672519189        0.14088281386160
C           -5.49569179690481        0.12147122705027        0.07077711695202
H           -5.39333597067077        0.26172078459343        1.15765854801909
C           -5.86080143645584        1.46349410645205       -0.57603053030779
C           -6.54532917444208       -0.94392834538673       -0.17237822743776
H           -4.95866528113895        2.07460208297588       -0.63180702626613
H           -6.19860043087016        1.26008428252422       -1.59311344005317
C           -6.93965829235239        2.23793716144819        0.19043311588017
O           -6.13938191773118       -2.20254071059588        0.08093991020422
H           -7.71446612440264        1.53341020545851        0.50556304719167
C           -6.35535138624398        2.91528869886887        1.42849593174474
C           -7.57200315391467        3.28740381327011       -0.72206347737414
H           -5.60389743527045        3.64723149838262        1.13943118799273
H           -7.13732194475296        3.42731833022870        1.98442214504038
H           -5.88683907697617        2.19304071189196        2.09228879629437
H           -8.04387411350146        2.82332121084359       -1.58451944040478
H           -8.32920336016180        3.85136778875801       -0.18262490878578
H           -6.81532615416198        3.98441095901187       -1.07676608621692
N           -7.67172279973900       -0.65273875634882       -0.65097123947942
H           -8.73829266220958        0.53494392082544       -1.48717137157087
C           -8.66563935588260       -1.65977333141620       -0.94026740214826
H           -8.22668646074892       -2.53213653960392       -1.44165407801439
C           -9.38633717051180       -2.13233788094791        0.32675161126980
C           -9.69770066179282       -1.01375977262896       -1.87761444634185
H           -9.79104193144762       -1.27768587330153        0.86547051743403
H          -10.20049844851101       -2.79590048488585        0.04941799812903
H           -8.68995899355906       -2.66210367118368        0.97186697012596
O           -9.53685304963119        0.29636638718434       -2.01691646609896
O          -10.57305028282940       -1.63387550651814       -2.41459793446821
