42
 energy: -62.486133518542 gnorm: 0.000478857666 xtb: 6.7.1 (edcfbbe)
N           -0.86752997841676       -0.39132532129398        0.54019483322157
H            0.08082427401461       -0.49652360283926        0.20137119103842
H           -1.00932912328922       -1.08042410587612        1.27366068789513
H           -2.07556966351876        0.98615720796065        1.13289410804528
C           -1.83695956125113       -0.60110099434228       -0.53376087394968
H           -1.49007186626485       -0.02604113670185       -1.40243027065012
C           -2.02727291887533       -2.06159161933372       -0.94042961263495
C           -3.14275139481418        0.03659870636826       -0.08104259584867
H           -2.42674517229369       -2.63518603137695       -0.10661024173534
H           -2.72303374809598       -2.12876802646821       -1.76993980498632
H           -1.07543529818083       -2.49382681591385       -1.24329911770645
O           -3.01783293109573        0.97327921032507        0.86760900602565
N           -4.23156873560966       -0.31126313993189       -0.60932908057930
H           -5.25258158330551       -1.52415366223036       -1.57971896637402
C           -5.48422393068412        0.29691110444421       -0.20858154195453
H           -5.50543769837855        0.50428518644809        0.86623075042014
C           -5.67308395940182        1.61677571656042       -0.98284789935909
C           -6.56992052267848       -0.69815419389476       -0.56079326811059
H           -4.83030726863515        2.26257207143301       -0.72553107112937
H           -5.60945152641667        1.39115815288237       -2.05088620088871
C           -6.98124194729407        2.35899955366937       -0.70133386136104
O           -6.21088844012321       -1.65598203032330       -1.42269683992626
H           -7.81754252954207        1.70641099854596       -0.96677891323471
C           -7.11018070492931        2.74745537704552        0.76893621652887
C           -7.04708476697143        3.60799251491346       -1.57944513964545
H           -6.26257184214250        3.35711658295463        1.07584358795851
H           -8.02086945385390        3.32031221864138        0.92463499731059
H           -7.15240959739622        1.86676455389488        1.40348339816743
H           -6.97336031147233        3.34585072492450       -2.63244323238876
H           -7.98799747300923        4.12908999902649       -1.42264401785339
H           -6.23314568829902        4.28820484238560       -1.33630315750001
N           -7.72384077570707       -0.56850855425037       -0.06760810906521
H           -8.98192399937992        0.47868867903331        0.72941978354005
C           -8.79740871586275       -1.47298821334174       -0.41840611859835
H           -8.80635892030489       -1.69916158422394       -1.49251691541327
C           -8.70681323978001       -2.78942799354488        0.36094154588316
C          -10.11718542148047       -0.78005811131027       -0.05016234906633
H           -8.65042566768120       -2.58496356712691        1.42832035331047
H           -9.59043306239229       -3.38804589900013        0.15862233613614
H           -7.81911955135469       -3.33823128530604        0.05659532473932
O           -9.95443019782162        0.33887643224933        0.64557955746766
O          -11.19267634616454       -1.21979980643620       -0.34986348808259
