42
 energy: -62.486133510676 gnorm: 0.000479597363 xtb: 6.7.1 (edcfbbe)
N           -2.46784845825497       -2.31791617453381        1.27403777722690
H           -1.55733379477592       -2.60759222796325        1.60798202325282
H           -2.68866220270731       -2.87515553916714        0.45327520644935
H           -4.23546046618159       -2.04776598237327        1.86100013378750
C           -2.48135598222068       -0.89753836166902        0.93400723535302
H           -1.99487434084268       -0.35763295842945        1.75564506123738
C           -1.78336494168770       -0.55170787167978       -0.37955200340684
C           -3.94470996939335       -0.45468323229956        0.91190953871183
H           -2.23459240734953       -1.10768423454330       -1.19889316710609
H           -1.89965409000491        0.50781628441502       -0.57875843431683
H           -0.72451586068232       -0.79692296519103       -0.32552450426188
O           -4.77426037574935       -1.28072676544828        1.56848161798955
N           -4.22385175259495        0.63966143629080        0.36647535841434
H           -7.28652068422416        2.01730853575118        1.64812883227945
C           -5.51451378715245        1.22881024499108        0.13476870115984
H           -5.47466318663085        2.20905964241534        0.63325821311279
C           -5.63130739967031        1.45466720393435       -1.38630365383009
C           -6.74262950933148        0.48282196852636        0.61138594089541
H           -4.70478311181811        1.91866473096495       -1.72649479644728
H           -5.71084903414033        0.47042574056428       -1.84992447628545
C           -6.83114836753442        2.31283227695632       -1.80046851940795
O           -7.60937070509214        1.13704380773815        1.42112052582369
H           -7.73062035925873        1.92176852619006       -1.31140695010590
C           -6.64725643337573        3.77684851532291       -1.40455851403620
C           -7.03002080168721        2.21209869244103       -3.31182832933409
H           -5.75217001837967        4.18222904141964       -1.87145675886256
H           -7.50100344553846        4.36554287181071       -1.73261814154954
H           -6.55315058174646        3.89738084537674       -0.32788820551138
H           -7.20833512161059        1.18146259723028       -3.60820326276680
H           -7.88207556788953        2.81077784847196       -3.62536214633551
H           -6.14634118506080        2.57270143624787       -3.83378299000702
N           -6.92681553656413       -0.70290799412210        0.23607088544013
H           -6.06831716396462       -2.22830266237866       -0.10554660158962
C           -8.05950715241051       -1.49166940638220        0.65169336374990
H           -8.31061237568463       -1.32110112275216        1.70706740628655
C           -9.29486102859004       -1.20163255296495       -0.20541496686112
C           -7.66546819651731       -2.96826309782852        0.48349933679618
H           -9.04310670321472       -1.29202943968751       -1.26019848015815
H          -10.07303914813729       -1.91965742818042        0.03748649411450
H           -9.65685302355556       -0.19505977759814       -0.01102664852045
O           -6.44168225170199       -3.13828952664152       -0.00162985537636
O           -8.39868473808007       -3.87770859165547        0.75848283258703
