42
 energy: -62.486133512059 gnorm: 0.000480537393 xtb: 6.7.1 (edcfbbe)
N           -0.77492741439824       -0.14121882061633        0.10765006389100
H            0.12135994197617       -0.19550120749462       -0.36011989670766
H           -0.74762668923491       -0.78199457506981        0.89613889341249
H           -2.00417813682542        1.19779157075290        0.76460854909254
C           -1.86434977150765       -0.50719687565906       -0.79599500406891
H           -1.69396538875409        0.01883219624052       -1.74422909006081
C           -1.99344533622059       -2.00433883106853       -1.07199362534162
C           -3.14383249145384        0.06975604646846       -0.20878141279214
H           -2.14118351591913       -2.54850776432039       -0.14049542472487
H           -2.84667190716090       -2.18096234404463       -1.71851629691396
H           -1.09453362041118       -2.37856043990676       -1.55751162062937
O           -2.96932427643624        1.09003052296359        0.64287991273194
N           -4.26006822331443       -0.39944165623677       -0.55481820937019
H           -5.10931651380730       -2.14927244789289        0.02101552563123
C           -5.49353435786113        0.15315520916862       -0.02401427038297
H           -5.38058335437904        0.35641640428499        1.05255406041918
C           -5.88417210399821        1.45439947058672       -0.73599267197962
C           -6.53171859653603       -0.93795292475359       -0.18389335038987
H           -4.98250097533667        2.05673221938962       -0.86335139214594
H           -6.26130874865272        1.19447866783245       -1.72578681497026
C           -6.92988718083557        2.27546231713205        0.02822353657899
O           -6.08075466246556       -2.18649966524429        0.03941601998286
H           -7.67886005730835        1.58886502585822        0.43243658886418
C           -6.28749192065021        3.04087374461215        1.18356399431462
C           -7.62045310058624        3.25396355229131       -0.91995109502123
H           -5.57990424014561        3.77481710355909        0.80307676793356
H           -7.04665854686768        3.56370696608840        1.76056265861829
H           -5.75315235509890        2.37210561261467        1.85357156316068
H           -8.13092809681915        2.72760497267007       -1.72256843441357
H           -8.35482051864731        3.84832035896109       -0.38166161576137
H           -6.89094110345366        3.93037319469937       -1.36101472652180
N           -7.70311588845334       -0.66985796356712       -0.55750805688878
H           -8.83866150223114        0.47136371337309       -1.38387152521437
C           -8.69805438124464       -1.69915195424481       -0.74878632114052
H           -8.27700485220269       -2.59462035262012       -1.22418382175821
C           -9.34986829792022       -2.10482053719904        0.57761739254742
C           -9.78326535206238       -1.11163981503014       -1.66361899109960
H           -9.73983461774866       -1.22449618537366        1.08504380410259
H          -10.16687999991442       -2.79306582245040        0.38039035699866
H           -8.61531897151528       -2.58745193567364        1.21765472788142
O           -9.65505581546521        0.19439068014775       -1.86430158238453
O          -10.66939832014934       -1.76891329249724       -2.13450414373766
