42
 energy: -62.486133526817 gnorm: 0.000478353912 xtb: 6.7.1 (edcfbbe)
N           -1.52058407043603       -0.53136358799509       -2.03882399999880
H           -0.86692043153749       -1.18450482247136       -2.45308540133280
H           -0.97986216293595        0.22363055705950       -1.62571887450498
H           -3.13604151015999        0.38524289004639       -2.48938539863682
C           -2.33505621348260       -1.17972504454128       -1.01359117821531
H           -2.69165084915436       -2.12929022793001       -1.43320147979876
C           -1.60347438055315       -1.45323973900556        0.29845907050092
C           -3.57490345487702       -0.31171118832860       -0.80591816568433
H           -1.24036258155090       -0.52079003732313        0.72576062640662
H           -2.28523131034230       -1.91053905094115        1.00643648234249
H           -0.75955125114124       -2.11955815177182        0.13047490196868
O           -3.85967418584648        0.49270132529511       -1.83739817714007
N           -4.21944557106738       -0.44319205244788        0.26492484363404
H           -5.71259835678783       -1.85229385626433        1.71420479112022
C           -5.45345080362017        0.24083596493213        0.60780880648338
H           -5.39472498418539        0.39438427854513        1.69582366878738
C           -5.74570871514400        1.57630473090091       -0.07791467783990
C           -6.51955661412309       -0.80172179744736        0.34215744699547
H           -4.86662866834882        2.21589996555104        0.02391940099838
H           -5.90695139648141        1.39254562432979       -1.13854215521714
C           -6.96968578300325        2.29016953554580        0.50889303154677
O           -6.49876378054513       -1.88032187348496        1.15326131766194
H           -7.76486928713031        1.55197350117065        0.65322050193499
C           -6.65209922176219        2.94145476093447        1.85369535197350
C           -7.46731550811578        3.34857022107349       -0.47387030756042
H           -5.87065610079504        3.68966235661702        1.73593617575480
H           -7.53643539747853        3.43238733239191        2.25372839993011
H           -6.31721408285942        2.20806384449673        2.58330752374213
H           -7.76056216976656        2.89212910249517       -1.41600473889867
H           -8.32788871519018        3.87350669652415       -0.06547111259121
H           -6.68449065820352        4.07724479042625       -0.67312972538858
N           -7.29089194300375       -0.68876832989115       -0.64379925529010
H           -7.72147129992034        0.14420162839508       -2.18261385101953
C           -8.26426253498221       -1.69790672541726       -0.98758232017106
H           -7.84277186230100       -2.70982459596838       -0.93377223000693
C           -9.49732942136110       -1.62694268246680       -0.07991789388554
C           -8.70939105977068       -1.41490799896848       -2.43112788452036
H           -9.90788897265656       -0.61903244253488       -0.08916951538464
H          -10.25023081150894       -2.32074967031956       -0.44290018124202
H           -9.22267932287919       -1.89018352625609        0.93856134815836
O           -8.28524649783481       -0.24567501168329       -2.89321126282688
O           -9.39166931898049       -2.17069246405273       -3.06548872649666
