42
 energy: -62.486132275754 gnorm: 0.000626420930 xtb: 6.7.1 (edcfbbe)
N           -1.40318882001989       -0.41248742256569       -0.05145900871900
H           -0.67468960975077       -1.07627017364280        0.18892597828593
H           -1.90113481712426       -0.15380262584746        0.79375655560450
H           -3.84088515518757       -0.49712259820015       -2.82422705475441
C           -2.34509050205078       -1.00616426813741       -0.97919107598778
H           -1.91534685848992       -0.91683310964147       -1.99003039212524
C           -2.65257443746647       -2.49075556277588       -0.70202992127256
C           -3.66391454585164       -0.25998427299470       -0.92381294648347
H           -3.04816258190416       -2.59460859964382        0.30610691699315
H           -3.39132295005838       -2.87153919450659       -1.40425188673365
H           -1.74525156439118       -3.08530040312704       -0.79249855503636
O           -4.31535018040537       -0.09135528837314       -2.08759593185106
N           -4.06062840306555        0.12979102872268        0.20442784178224
H           -7.00301402828839        0.13698419544737        2.13592690097977
C           -5.34313710496420        0.73691423837583        0.46336938419451
H           -5.29065749081436        1.04684210306858        1.51739418657429
C           -5.64169913975124        1.96381025966593       -0.41785635111378
C           -6.46368889002778       -0.26607733064240        0.30204020952880
H           -4.77419337075228        2.62612000648680       -0.38038801690104
H           -5.75752170185854        1.60381205754373       -1.43961045547461
C           -6.90052642857068        2.73383824489587       -0.00348435675230
O           -7.30827970802971       -0.39829908615615        1.39333544951898
H           -7.72149877329213        2.02343892718200        0.14782365516548
C           -6.68630970600073        3.52781200493635        1.28437886618200
C           -7.30814603565002        3.68006580696523       -1.13120378013917
H           -5.89903215036839        4.26520921406657        1.14247250436450
H           -7.59903794399477        4.05109764591495        1.56078473379648
H           -6.40209035052235        2.88636500573496        2.11602067249757
H           -7.53304473595545        3.11960990017458       -2.03509351764520
H           -8.19259230263523        4.24779092376601       -0.85152950514954
H           -6.50366133476240        4.37943092721596       -1.34861164277987
N           -6.60421802205677       -0.89059432084065       -0.76888489797307
H           -8.85465413842846       -0.47214952712751        0.43422988544345
C           -7.61232553432172       -1.86468062772846       -1.09148312290609
H           -7.30049045190510       -2.29818013755289       -2.04901961393044
C           -7.77660029144313       -2.98889958609204       -0.05973338280867
C           -8.98205841094352       -1.21103070977389       -1.33547493071028
H           -8.14550872470348       -2.60993026445763        0.89078435601973
H           -8.47667098731551       -3.72855773347560       -0.44040227708894
H           -6.81399273155494       -3.46677169798111        0.10974877107405
O           -9.46326069526094       -0.48288361139891       -0.32840327381230
O           -9.59073965434481       -1.35667978324456       -2.35631553165826
