42
 energy: -62.486133512179 gnorm: 0.000480257810 xtb: 6.7.1 (edcfbbe)
N           -2.23567566721130       -1.48365170330537        1.59057272414954
H           -1.81071300188163       -0.67344681530902        2.02934719739816
H           -1.52545051553572       -2.20043295999601        1.50207136066862
H           -4.08782655502079       -1.36516853301790        2.14364624974615
C           -2.78942177460182       -1.13473909070246        0.28479724879522
H           -2.14313842876944       -0.48373081957234       -0.31938284419628
C           -3.09577785390417       -2.41174052066892       -0.49971060123032
C           -4.11012473901958       -0.42125864317751        0.52596273677412
H           -3.74707959332070       -3.05936960157779        0.08343258802449
H           -3.59147788602591       -2.15680206453654       -1.43161708387538
H           -2.17710189230874       -2.94967275501213       -0.72427821713540
O           -4.71448090069435       -0.77471211890008        1.67278865011595
N           -4.47806452408668        0.44716301253966       -0.30136638865631
H           -7.66647055861466        1.07553310830798       -1.92143716720998
C           -5.77453067772715        1.08780145658977       -0.33442718385270
H           -5.94550749223274        1.60405162112644        0.62583818564920
C           -5.72471186834840        2.12644811860676       -1.46301221893889
C           -6.91137475738144        0.08295448447277       -0.45156231549829
H           -4.70972532908930        2.52651741954272       -1.46814670211240
H           -5.85391075535294        1.62488236349088       -2.42705814118208
C           -6.71895886977328        3.28867375599427       -1.30301542256256
O           -7.84550379560638        0.27665493861797       -1.41039358846540
H           -7.67255411373138        2.91581830244760       -0.90799872612855
C           -6.18169443769051        4.32164148559138       -0.31409307083693
C           -6.97956211526471        3.95086541914839       -2.65582716238490
H           -5.26535873735069        4.76714571350427       -0.69512737681470
H           -6.90998216690546        5.11416946105368       -0.15825303733650
H           -5.96550777216620        3.86474346077487        0.64848737956607
H           -7.42288713591723        3.25145374025429       -3.36290247431947
H           -7.65863723470978        4.79261182741852       -2.54281804021525
H           -6.04743332204567        4.31843220477446       -3.07916160592204
N           -6.96545493624801       -0.89628588460130        0.33404651175994
H           -6.42276151170398       -1.69179253516729        1.92669838252454
C           -8.00907529536083       -1.88882064714012        0.25472801745817
H           -9.00180613066703       -1.42903996526761        0.16070230834224
C           -7.79871197584674       -2.84698533017058       -0.92329819435025
C           -7.96891764340558       -2.70374544308853        1.55626154477140
H           -6.79398317645219       -3.26396268714629       -0.88640367256581
H           -8.52282234280877       -3.65430133483414       -0.85969062730929
H           -7.92810567966951       -2.31686613614539       -1.86332437383565
O           -6.94419981685444       -2.42181905361437        2.34507834301930
O           -8.78970827889135       -3.54124315093533        1.81878211112171
