42
 energy: -62.486133496072 gnorm: 0.000481346874 xtb: 6.7.1 (edcfbbe)
N           -0.70109652329292       -0.06642882289400       -0.35532478585281
H            0.12306890209812       -0.39358941600177       -0.84473798504103
H           -0.58306118609547       -0.29006364570673        0.62894868547975
H           -1.81134826623383        1.51320862417398       -0.30798439697237
C           -1.90877977442297       -0.70895753690372       -0.87035316674679
H           -1.87341820956289       -0.62699523650466       -1.96519558376247
C           -2.06345108571424       -2.17871102299423       -0.48338630735777
C           -3.08894669848880        0.14460810363736       -0.41477605352133
H           -2.21225616015620       -2.27389985881571        0.58982761384577
H           -2.91698998953579       -2.61356045288385       -0.99294967739510
H           -1.17094086363944       -2.73342195219660       -0.76710561452857
O           -2.78227976656112        1.43240438464527       -0.20786699426864
N           -4.20868271850375       -0.40176258029888       -0.25726489321451
H           -5.06715905973795       -1.95873850762799       -0.35341129550129
C           -5.46361746826800        0.24362722110533        0.07422678767248
H           -5.48570689951834        0.44196018247441        1.15378905222226
C           -5.65165517901655        1.56602779481793       -0.68974717562170
C           -6.52400739627754       -0.81414192751092       -0.22369353482142
H           -4.84392972922105        2.22866820988242       -0.37548573517390
H           -5.51353172426303        1.35392752091825       -1.75325442082694
C           -6.97708037383486        2.31004800846041       -0.50596175826073
O           -6.04598493025288       -2.05527329945632       -0.37398272240280
H           -7.76026453132842        1.75835993052744       -1.02831856146691
C           -7.36159109515748        2.45350789231601        0.96340719140368
C           -6.85885567225701        3.69030881217378       -1.15262477554857
H           -6.56535978600918        2.94574681961933        1.51886151404219
H           -8.26323177008348        3.05444754389010        1.05626994939608
H           -7.55203418195881        1.48112989683191        1.40957762510963
H           -6.57228487022134        3.60239836604473       -2.19796025290119
H           -7.81083611324049        4.21286278383092       -1.10257435064515
H           -6.10958138010447        4.29096819996021       -0.64051224282837
N           -7.74535671667090       -0.51745667417572       -0.33456347932690
H           -9.21051545484340        0.63224687602840       -0.18410178931631
C           -8.72374334856405       -1.54815327118325       -0.61742949121842
H           -8.42038516643037       -2.16977531043072       -1.46871692170518
C           -8.97050982661244       -2.45832917789614        0.59336654774398
C          -10.04926717686413       -0.85314256096325       -0.94596402817224
H           -9.24969055372950       -1.85971598453538        1.45872714025759
H           -9.77611736107651       -3.15049430192182        0.36496967092033
H           -8.06816903429110       -3.01822302946197        0.82411353564398
O          -10.09997185543559        0.41074022985150       -0.53931342383282
O          -10.96757026512499       -1.40838872061883       -1.48258889355783
