42
 energy: -62.486133513912 gnorm: 0.000479913531 xtb: 6.7.1 (edcfbbe)
N           -1.94451082289464       -0.32776929767897        1.60998587718841
H           -0.98510872064496       -0.64616521933492        1.54352567298646
H           -2.38476428878551       -0.84712813192971        2.36576089789007
H           -2.97622176911081        1.30190070366261        1.64715026364085
C           -2.66360964700866       -0.58215719656133        0.36090178845116
H           -2.03737068325627       -0.19702817960600       -0.45544245085723
C           -2.99114434162399       -2.04941962909589        0.09657478163142
C           -3.91688518350323        0.27864333577100        0.38768735335019
H           -3.53875378729891       -2.47198197157144        0.93588195239438
H           -3.61236292254108       -2.12327472636866       -0.78885472615336
H           -2.07717248903962       -2.62091643225061       -0.05258668221715
O           -3.82743325483109        1.37307798228916        1.17009003668530
N           -4.91909063560836       -0.05127499605311       -0.29378610190904
H           -8.44457254303831        1.24994661495399       -0.84683421829457
C           -6.10313634869559        0.77186047023043       -0.31815155177724
H           -6.13068692949231        1.45878636036796        0.54381197295124
C           -6.14841747611747        1.59109860371299       -1.62840555310380
C           -7.29810558033040       -0.14637772376832       -0.19027037346468
H           -5.15152284444253        1.56498254836538       -2.07213159327465
H           -6.81807487238754        1.10051437935222       -2.34026301378802
C           -6.56264902303475        3.05599302906714       -1.42925537080945
O           -8.51391035709267        0.34354176015486       -0.52099638454183
H           -7.41482237156383        3.10801045490119       -0.73754154258811
C           -5.41286477305950        3.85944935779606       -0.82545220885336
C           -6.99119939816309        3.66761705234825       -2.76214682107686
H           -4.58938294072848        3.92156211409672       -1.53369860150400
H           -5.73668578463068        4.86954939211375       -0.58557016684633
H           -5.04343672485052        3.39094493078032        0.08322251905952
H           -7.84696645798802        3.14052858319351       -3.17988485292446
H           -7.26487593241023        4.71165160725728       -2.62968472166263
H           -6.17508977622934        3.61598874417948       -3.47914908601623
N           -7.11772107844069       -1.29685600703545        0.27789715007124
H           -5.95440716186524       -2.46401027439133        0.88753928630617
C           -8.15946769802980       -2.26431027689166        0.50834984846265
H           -8.97727531069834       -1.84515635101825        1.10830358077679
C           -8.73947747278267       -2.83099482176382       -0.79159859724003
C           -7.50124695468987       -3.41251108778867        1.29554851282455
H           -7.93624814580906       -3.20682110554997       -1.42206707342535
H           -9.41861010627804       -3.64530399746944       -0.55504744333255
H           -9.27839481887436       -2.05416141026540       -1.32777515193782
O           -6.18003441143475       -3.31003677628262        1.35647949889629
O           -8.12247940317860       -4.31401789545557        1.78681781037343
