42
 energy: -62.486133508713 gnorm: 0.000480547894 xtb: 6.7.1 (edcfbbe)
N           -1.73414378166643       -0.85481173160262       -0.18687174050588
H           -1.11011051578284       -1.63459110691491       -0.02077614675925
H           -1.27801385323948       -0.01666801219343        0.16292777166860
H           -2.79253196076235       -0.17171889527238       -1.58882103745809
C           -3.01128308117148       -1.04963225256877        0.50061879492366
H           -3.32280554406226       -2.08700105124139        0.32642965176017
C           -2.97232766235588       -0.78671971372871        2.00298140941215
C           -4.04803220527579       -0.17098721075666       -0.19952090265252
H           -2.63444214724401        0.22947020349738        2.19765598636374
H           -3.96992839794971       -0.90200822816558        2.41140962901896
H           -2.29803938309784       -1.48500996204735        2.49417338527800
O           -3.69587142668247        0.18593441503635       -1.45036695825610
N           -5.10420159144080        0.09119397179144        0.41916615566139
H           -8.60403382959307        1.24062531795317       -0.51994107033240
C           -6.26710766672198        0.80984911324147       -0.01456815792418
H           -6.51822975294693        1.46091196541125        0.83870302096508
C           -6.21411167586994        1.67091325476775       -1.30070067791666
C           -7.39816000001592       -0.19668093743359       -0.10035904638477
H           -5.21265533090377        1.61640952440961       -1.72049959524678
H           -6.89119731598282        1.24960577118837       -2.04936552267224
C           -6.56329927731331        3.14587206706624       -1.06263416749718
O           -8.62817261135879        0.28377533165643       -0.39272719550116
H           -7.48701490788974        3.21700592434000       -0.47061274624877
C           -5.44628237700696        3.84597882934550       -0.29228324243997
C           -6.80005396076057        3.84654760639680       -2.39914924459398
H           -4.53273083782001        3.84947745488047       -0.88255551455147
H           -5.71959865357536        4.87600574566891       -0.07418622083933
H           -5.24147255603462        3.33900097200587        0.64777723078768
H           -7.62653590047484        3.38834906579511       -2.93876303367674
H           -7.03456831215145        4.89695609019271       -2.24287433083701
H           -5.90936941715135        3.78217133550829       -3.01979249280277
N           -7.15997814833740       -1.40880630215066        0.11851963319542
H           -6.02235243520603       -2.55324340634956        0.84074798391966
C           -8.15355083847596       -2.45154653236231        0.09168841059627
H           -9.04509976376704       -2.17912808862995        0.67181982664034
C           -8.58349373688890       -2.81266854808682       -1.33311443497124
C           -7.50114432264707       -3.68318208288256        0.74704843600747
H           -7.70585249687161       -3.01389009511752       -1.94403465877576
H           -9.20743910037831       -3.70142354231948       -1.30241703729611
H           -9.14283223655044       -1.99134578316609       -1.77378745131490
O           -6.23274745949519       -3.49052687490938        1.08509362147302
O           -8.08537479334270       -4.71648915299673        0.92289622959770
