42
 energy: -62.486133506104 gnorm: 0.000481425199 xtb: 6.7.1 (edcfbbe)
N           -1.75595193170093       -2.01246852159281        0.47048060110787
H           -1.33874591454871       -1.56041402293128        1.27772852656234
H           -1.03826397663411       -2.56723731073393        0.01864399126233
H           -3.62732634388036       -2.20750093929830        0.97454831965545
C           -2.29811304963459       -1.01798159312857       -0.45508090910812
H           -1.65256784215228       -0.14093382587781       -0.59813052001181
C           -2.57031776248941       -1.67030544461927       -1.81097731004237
C           -3.62981949427382       -0.55144674724889        0.10448369300069
H           -3.22232828113495       -2.53190623062633       -1.68601618000933
H           -3.05819691532718       -0.95459047729859       -2.46486944279903
H           -1.63905810586203       -1.99654495925816       -2.26966852538835
O           -4.24817959222685       -1.45504185871329        0.88775033119871
N           -4.04016743719649        0.59955059526283       -0.18192387107487
H           -6.75833083700874        0.61212237159720        2.13938453738090
C           -5.35045920206109        1.08549451905750        0.18270081665036
H           -5.24616201312620        1.62271804025792        1.13818801052968
C           -5.78676097252007        2.06938828866405       -0.91486858706282
C           -6.39569349519749        0.00238924568008        0.32335578066950
H           -4.98509874638851        2.79642450137752       -1.04791639186301
H           -5.87723200491410        1.48871715188246       -1.83314543756840
C           -7.10989226388994        2.78768407705382       -0.63195019038682
O           -7.12132809035844       -0.01139595857652        1.49952697146345
H           -7.86904724481479        2.04387192578009       -0.36431346523378
C           -6.98032382156335        3.79573765373339        0.50897824524996
C           -7.57935144513624        3.50101928173218       -1.89836097634564
H           -6.22609719923794        4.54167138224679        0.26730814523248
H           -7.92753109110536        4.30584283571925        0.66908850528207
H           -6.69779548811340        3.31689747655046        1.44398848427886
H           -7.72641481625929        2.78713811234515       -2.70460895147558
H           -8.52124939439476        4.01446458369989       -1.72023813330269
H           -6.84116635262701        4.23439642651851       -2.21576761728004
N           -6.57052839377590       -0.79068841387898       -0.62680087202044
H           -8.72628694041100       -0.37255776095477        0.72660916144968
C           -7.50315488948474       -1.88466394579698       -0.69170903181609
H           -7.23671086249858       -2.43781238276647       -1.60010178747245
C           -7.45490949390393       -2.83704295903780        0.51070039552089
C           -8.94758998780761       -1.39948393509433       -0.88201634896075
H           -7.80103742136925       -2.35059842167073        1.41987461036195
H           -8.08010763145902       -3.70408206703137        0.31235412660652
H           -6.42891268704425       -3.16156556570033        0.66640375679894
O           -9.40160520318462       -0.55736407874430        0.04714074871001
O           -9.63637660559993       -1.76392690111978       -1.79183785693572
