42
 energy: -62.486133501988 gnorm: 0.000481625839 xtb: 6.7.1 (edcfbbe)
N           -1.45234284074949       -1.49422491098031        0.52951180426430
H           -0.89452005420798       -0.72069250475879        0.87625264413382
H           -0.81735684531497       -2.22325752925055        0.22623293488263
H           -3.08832996280780       -1.36111678994328        1.56136289904714
C           -2.30485107386246       -1.06038592070475       -0.57748899527899
H           -1.81770073126862       -0.36200790709509       -1.27081697461699
C           -2.80144915413578       -2.27652311097111       -1.36072661048348
C           -3.51124140935924       -0.36981975935629        0.02522722401974
H           -3.27562980864906       -2.98732911633630       -0.68682089042863
H           -3.52526450554634       -1.95544836410985       -2.10361563199196
H           -1.97136839789647       -2.76961067909043       -1.86207577175854
O           -3.81207083908434       -0.76136502088332        1.28638270092338
N           -4.15500779942508        0.46996402692364       -0.64844697922427
H           -5.87150516221594       -0.02509861385392        2.02312743395975
C           -5.36471089289197        1.07209373320255       -0.11788710898358
H           -5.13400754922207        1.58887920862439        0.82588222559764
C           -5.88169817989522        2.06538444221642       -1.16106532306219
C           -6.38627884666052       -0.01065466818075        0.15146476977929
H           -5.08887929342129        2.78874698727754       -1.35690580645299
H           -6.05753997664993        1.49404236186201       -2.07155627105490
C           -7.16788952614636        2.79317146810913       -0.76085528398075
O           -6.61037148989029       -0.32364899080033        1.47656677699035
H           -7.93268099411233        2.04578674274579       -0.52417961901054
C           -6.96537091850072        3.69288488098400        0.45727940985400
C           -7.66266525173104        3.62408476374385       -1.94301571242836
H           -6.15246452655897        4.39446479485611        0.27998459701281
H           -7.87072193112171        4.26153830039392        0.65689557709371
H           -6.73514128256417        3.11416252716957        1.34862965621431
H           -7.83627283174619        2.98878947376702       -2.80746495271289
H           -8.59455539265104        4.12609082977120       -1.69399606639537
H           -6.92579956631306        4.37861105226393       -2.21084614785584
N           -6.93752771094043       -0.58185499210647       -0.81449858135094
H           -8.39604068771830       -0.53708021050898        1.31093314326760
C           -7.87061326722963       -1.67562971380653       -0.75884471167856
H           -8.00312815313809       -1.99516432781752       -1.79910165095460
C           -7.39549468934722       -2.87336207922113        0.07649127133135
C           -9.25844709794806       -1.24918155616266       -0.25466428728821
H           -7.31791204130576       -2.61868632736062        1.13125161087710
H           -8.09736760112738       -3.69557300786733       -0.03812270584749
H           -6.41680812287446       -3.19079781747715       -0.27732698079962
O           -9.28691647614701       -0.63325367005725        0.92591032339510
O          -10.26024837535241       -1.47895383521586       -0.87012878964555
