42
 energy: -62.486133518251 gnorm: 0.000479282170 xtb: 6.7.1 (edcfbbe)
N           -1.22294011699748       -1.27623149043616        0.48552189788066
H           -0.29373335711225       -1.47598967690191        0.13644513067739
H           -1.58449953982521       -2.13407972093890        0.89466591967427
H           -2.15734432217188        0.02933429396936        1.53824138664596
C           -2.10446177579581       -0.83603448973405       -0.59703870246886
H           -1.55532696897712       -0.08628454705830       -1.18178104444239
C           -2.58387119118774       -1.94804172089361       -1.52769588942863
C           -3.28031064384471       -0.11166702684975        0.04050283580954
H           -3.08365768205018       -2.72578727856868       -0.95336458616237
H           -3.29609951382807       -1.53700807573349       -2.23490073471062
H           -1.74526985596258       -2.38714884133493       -2.06430954388655
O           -3.06038490512465        0.32386098942379        1.30284538565925
N           -4.34070046864101        0.04560148387147       -0.61156704004614
H           -6.13141777403601       -0.13361373907666        2.06836408912583
C           -5.45626624832532        0.78507403852720       -0.06403154170329
H           -5.19246157665773        1.27474434073661        0.88639759429692
C           -5.88644960334690        1.82660286478121       -1.10375223531437
C           -6.56143076914083       -0.21819654128467        0.16876065064444
H           -5.03833662166565        2.48550784173165       -1.29956639918205
H           -6.11420911313517        1.27403140589985       -2.01437398441989
C           -7.10440702083507        2.65772051488431       -0.68998339298842
O           -6.77941184775157       -0.56058455736594        1.49345044695914
H           -7.91500645323055        1.97508378496752       -0.41303442916188
C           -6.80090687770692        3.57222433614791        0.49580083615011
C           -7.57076407767562        3.49254318862787       -1.88111751817805
H           -5.96125564511430        4.22540460661071        0.26538775723870
H           -7.66546505461623        4.19273593065989        0.72063409691063
H           -6.55858581430013        3.00368480372388        1.39068631970853
H           -7.82226660775518        2.84951847674168       -2.72054735483136
H           -8.45159003982824        4.07341243621650       -1.61818680592149
H           -6.78627859886572        4.17907852351575       -2.19362333959652
N           -7.16654615269867       -0.71883996987208       -0.80062086815904
H           -8.58879799019178       -0.64310141727838        1.34733757612516
C           -8.18590619788627       -1.73328641420771       -0.77028172013913
H           -8.35427711131125       -2.00537395165916       -1.81866268801325
C           -7.80598414573515       -2.99348064755645        0.01980229654826
C           -9.52658827150919       -1.20659467174057       -0.23467003715196
H           -7.68561770325982       -2.77900686459441        1.07954311237847
H           -8.58156812911806       -3.74540036495705       -0.10297816063004
H           -6.86699040911670       -3.38637024060950       -0.36388151721512
O           -9.48826662491817       -0.63731203073715        0.97019481444317
O          -10.55053843337967       -1.31875537530518       -0.84567751852097
