42
 energy: -62.486133511671 gnorm: 0.000480046650 xtb: 6.7.1 (edcfbbe)
N           -1.30525878108732       -1.24178574359840        0.44057103280991
H           -0.75583772006439       -0.39654199408121        0.55313318913806
H           -0.66974380180801       -1.99739732173943        0.21531308756349
H           -2.80369023339532       -0.94088576039907        1.62015275729731
C           -2.30104426596650       -1.07178243674578       -0.61755032880056
H           -1.93649974344130       -0.51170642872055       -1.48861886783544
C           -2.81176915100874       -2.43674279704553       -1.08081929556430
C           -3.46828694511066       -0.31421676798557       -0.01853321185025
H           -3.17637873054681       -3.00906660653732       -0.23027268617969
H           -3.62332318420534       -2.29467839253222       -1.78794179520117
H           -2.01378688584454       -2.99657855166926       -1.56382402920976
O           -3.60131758167681       -0.45523031089672        1.32414804655297
N           -4.24370100110640        0.33935777430262       -0.75740017068577
H           -5.76953342122739       -0.17620935400096        1.91021242618271
C           -5.39454355176501        1.00808981613957       -0.17802857369278
H           -5.12064967076545        1.49393108851008        0.77020391740063
C           -5.90125357407474        2.03617840553888       -1.19095553346944
C           -6.43600637155010       -0.05432824678272        0.08963644261485
H           -5.09307745042305        2.74092473382858       -1.39327067591298
H           -6.11593477004387        1.48675666616154       -2.10641840217362
C           -7.15503431555597        2.79314069026336       -0.74419458423467
O           -6.54406114732108       -0.46070819679060        1.40542534847367
H           -7.92776617310834        2.06230188174727       -0.48368166614147
C           -6.88833625230698        3.68196755223176        0.46946438241124
C           -7.67178598687610        3.64051255014264       -1.90494929633357
H           -6.07758753145796        4.37719591179280        0.25998155599379
H           -7.77790526692742        4.25777479189908        0.71439149182175
H           -6.62260539819200        3.09445183610204        1.34496604175882
H           -7.89583509915372        3.01222728337000       -2.76285957121516
H           -8.57936398082310        4.16689066387787       -1.61916469034885
H           -6.92569398062884        4.37562386531152       -2.19985475716689
N           -7.06228242840919       -0.56348227070556       -0.86430447369445
H           -8.35032709943236       -0.63230361752208        1.36779433192890
C           -8.01043498660887       -1.64364288378953       -0.80269601116130
H           -8.22640374496766       -1.89809187408489       -1.84678754099723
C           -7.50297841556088       -2.89765278993374       -0.07601842018260
C           -9.34583835333971       -1.22013072821650       -0.17066820838724
H           -7.34092366211526       -2.70775465588284        0.98280327523684
H           -8.23184330268414       -3.69701575078504       -0.18381986683356
H           -6.56170869528564       -3.21385493190487       -0.52067806550580
O           -9.26954639934022       -0.68319394640621        1.04632420624409
O          -10.39629219962240       -1.38436895639630       -0.72227568414638
