42
 energy: -62.486133516599 gnorm: 0.000479710035 xtb: 6.7.1 (edcfbbe)
N           -0.93615684009403       -1.26044220467490        0.48500333770649
H           -0.77567795801825       -0.87329985816137        1.40901172511335
H           -0.03550969510566       -1.39410366289482        0.04107265716644
H           -2.48985729183636       -2.29254354721508        0.66584429968294
C           -1.78501054887130       -0.37496636598430       -0.31200109746352
H           -1.58743111741412        0.69287169231125       -0.15198895383552
C           -1.62272082121030       -0.69776327395160       -1.79745594779134
C           -3.23056276420143       -0.65989408504667        0.08104729487025
H           -1.82107361836624       -1.75251295314106       -1.97647237232617
H           -2.32238080427833       -0.10337006276618       -2.37719508623754
H           -0.61067432092314       -0.47109661492681       -2.12637666089118
O           -3.39521479388614       -1.91571156699095        0.58462235503871
N           -4.07799529911598        0.23636350050906       -0.08647100548789
H           -5.07269888561913       -2.07041790321047        0.70030195344793
C           -5.49676882511234        0.36423449218445        0.10032399277069
H           -5.61076187408453        0.75675527608546        1.12531631850070
C           -5.96863802045774        1.45843535355217       -0.87709308390047
C           -6.42234792447739       -0.84696697544866        0.05920296593476
H           -5.09406166483980        2.05714489140911       -1.13466540762099
H           -6.32813901133927        0.97688148033770       -1.78635735546625
C           -7.05803959009115        2.37760413031142       -0.31118408828934
O           -6.03213513553802       -2.03450342486483        0.53092684309547
H           -7.80006601661728        1.76095567358807        0.20300345656333
C           -6.47315057550194        3.37555298116369        0.68631247695660
C           -7.74598855289027        3.13246762396065       -1.44686627011008
H           -5.76691180562382        4.03613774260214        0.18796118250705
H           -7.26311455274836        3.98399875700140        1.12024122276366
H           -5.95251772397622        2.87068769375318        1.49608543746289
H           -8.21326394656115        2.44659972775934       -2.14869141607977
H           -8.51607026128093        3.79116819968099       -1.05271580160229
H           -7.02256079017943        3.73875939891104       -1.98805608155694
N           -7.60403997342680       -0.64477577193442       -0.34221536867526
H           -8.74664402710258        0.31236615229552       -1.36588699126920
C           -8.58698136325221       -1.70326566356049       -0.35970559966523
H           -8.15210524331181       -2.67104361347286       -0.64071747835343
C           -9.27338078432727       -1.84720324791099        1.00349797505506
C           -9.65068129802432       -1.31532658975499       -1.39627469217080
H           -9.67824108749971       -0.88732525077410        1.31853020284220
H          -10.08311675191902       -2.56696534841031        0.92446414295909
H           -8.55501968960802       -2.18995107130589        1.74421307076419
O           -9.54370967649737       -0.05952775009422       -1.81489792701631
O          -10.50477032929336       -2.06803397323085       -1.77475898476021
