42
 energy: -62.486133516198 gnorm: 0.000479604228 xtb: 6.7.1 (edcfbbe)
N           -1.54413485820957       -2.07150108510894       -0.13171312692118
H           -1.18598218254320       -1.99904492545679        0.81499873761897
H           -0.79408699365786       -2.40723917033401       -0.72435740406109
H           -3.42155489704746       -2.48710716254914        0.08438525927236
C           -2.04303457259557       -0.78121577609759       -0.60412620833742
H           -1.44213934188004        0.07692863982834       -0.27267963562261
C           -2.11627048746947       -0.77763905572318       -2.13167970766691
C           -3.45636090413286       -0.61624892233449       -0.06583213248951
H           -2.71891862818802       -1.61401730788326       -2.47965618894908
H           -2.57010181629874        0.14918373451879       -2.46910029388377
H           -1.11916816646833       -0.86039204751106       -2.55931336684140
O           -4.07407966116845       -1.77205507408457        0.23544115977918
N           -3.93674118236928        0.53975812646261        0.01530730247464
H           -5.29003300013085       -0.63029845937488        2.34674980986242
C           -5.28765425925482        0.86891749109851        0.41597473639214
H           -5.18896829577085        1.43508753639854        1.35442558650999
C           -5.84984148075057        1.79847471634185       -0.66918602271239
C           -6.19071842553761       -0.31798661179697        0.67660644696382
H           -5.09070429928004        2.55622883825197       -0.86862292036308
H           -5.97927505714952        1.20515878924432       -1.57474861164741
C           -7.17493060619254        2.47488837829368       -0.30504138343706
O           -6.08022912197894       -0.92594596313337        1.87969828761130
H           -7.86329414377417        1.71244698777743        0.07125188800099
C           -6.98686887699309        3.54251180905446        0.77062247058612
C           -7.78620354380438        3.10130967079410       -1.55719377276543
H           -6.28029720371492        4.29870973440558        0.43475427860405
H           -7.93459269575141        4.03120909339152        0.98517815780686
H           -6.61612782302157        3.11260656475083        1.69781093526298
H           -7.97545787613868        2.34424518678883       -2.31414515360455
H           -8.72877120243304        3.58817237853114       -1.31821277808115
H           -7.11241629750891        3.84619054081470       -1.97521983453360
N           -7.04532451426790       -0.65980077035190       -0.18116952215575
H           -7.62511063918068       -0.59917521619059       -1.87249834767576
C           -7.92743075881731       -1.78516567081747        0.01607263855613
H           -7.40321316796983       -2.64228782663686        0.45672724160240
C           -9.11884850509801       -1.41885485962006        0.90804937400160
C           -8.46224618878738       -2.17998455418785       -1.36873355064545
H           -9.63391885503718       -0.54978444632540        0.50270231276415
H           -9.81043648079984       -2.25572925272485        0.94519593470020
H           -8.77197146571264       -1.19033265395547        1.91273117955460
O           -8.17519116495679       -1.29192986440959       -2.31321201491001
O           -9.09354160759762       -3.18031718794151       -1.56930674157825
