42
 energy: -62.486133515746 gnorm: 0.000479446045 xtb: 6.7.1 (edcfbbe)
N           -1.97684137873177       -2.27634334077452        0.24077760594455
H           -1.21327028920203       -2.25453775871824        0.90277580871694
H           -1.74999117341135       -2.94341533324351       -0.48615677282319
H           -3.71420362467105       -2.26530227514459        0.86421025597432
C           -2.26236680401299       -0.95394267482585       -0.32277854389505
H           -1.56930503561705       -0.19728024884643        0.06076133957369
C           -2.20518987594765       -0.94900734062021       -1.84851902414511
C           -3.67244275418230       -0.55618956074978        0.11967611184981
H           -2.89065098531190       -1.69343963430389       -2.24937236953967
H           -2.50574297295605        0.02826259163070       -2.21255497824258
H           -1.19677657625476       -1.16755521126530       -2.19541301080163
O           -4.32912427510475       -1.49679816228720        0.80950531809278
N           -4.08440554228703        0.59238890206793       -0.17465147196858
H           -6.05480858836531        0.33393986894779        2.34860546925156
C           -5.41717772323519        1.08787200458234        0.09478122295211
H           -5.31936777229024        1.79858383302276        0.92916186197394
C           -5.83612672160084        1.85272385214403       -1.17031723529938
C           -6.41999483408008        0.02100779919415        0.47560704754746
H           -5.05074401551173        2.58389155273662       -1.36726143252287
H           -5.84769423270735        1.13472477505818       -1.99029554732539
C           -7.19362526086126        2.55792519568021       -1.10821163347672
O           -6.66157239412618       -0.17076053437258        1.79435612912184
H           -7.97993285632132        1.79480525814524       -1.09648437893992
C           -7.34743174642935        3.43683470096843        0.13084178036378
C           -7.37518220367540        3.39742310875947       -2.37232008049288
H           -6.50690135458486        4.12233405802958        0.21794371922077
H           -8.26073876182473        4.02359569374580        0.06109254240979
H           -7.40868877786851        2.83860348820244        1.03672112405550
H           -7.26058399667628        2.78019595121969       -3.25984275867602
H           -8.36457040032451        3.84871406698342       -2.39277724971564
H           -6.63431523372458        4.19302916824084       -2.40827127617063
N           -7.00072558710324       -0.63690039608671       -0.43003228932312
H           -8.93031063224006        0.43676519989035        0.01473439720399
C           -7.92136935591269       -1.70727174506540       -0.10214255319991
H           -8.43207193898753       -1.95444779404431       -1.04645068011726
C           -7.20746720266777       -2.95178560760344        0.42031318328063
C           -9.02130495638964       -1.27316747900870        0.87382400210827
H           -6.65153948321871       -2.70244738890195        1.31930571785884
H           -7.94359982591015       -3.71335186340947        0.66047585123433
H           -6.51942712790335       -3.32646774041814       -0.33273544453865
O           -9.45378138420276       -0.01431116605480        0.69631487844114
O           -9.51482555367204       -1.99092331741038        1.69373839988148
