42
 energy: -62.486133508481 gnorm: 0.000480616257 xtb: 6.7.1 (edcfbbe)
N           -1.76144166840921       -0.75253058231833       -1.98610774632778
H           -1.09096861844695       -1.44431264108769       -2.29877222234014
H           -1.23796732348986        0.03614517775328       -1.61591619625600
H           -3.40863776900047        0.09809807069318       -2.58593882939514
C           -2.62925162775358       -1.30194947296260       -0.94462654608258
H           -3.01892092451292       -2.25712822084726       -1.31930982277092
C           -1.94800052621817       -1.53110547198431        0.40172462607466
C           -3.83551965123078       -0.37936734989506       -0.82164943672578
H           -1.53108922939428       -0.59817174211362        0.77542622439784
H           -2.68342738695292       -1.88644429765549        1.11447494193603
H           -1.14919769861413       -2.26402022006683        0.30576527654070
O           -4.11033780601522        0.31153935229384       -1.93940960361655
N           -4.47082220266962       -0.36595205810255        0.26096025729148
H           -7.96092190218121        0.63063367105913        1.27238768725599
C           -5.67247977270091        0.38840693955252        0.50718568684400
H           -5.72165853210097        0.48068219605531        1.60250421301461
C           -5.68772107019917        1.79541020645863       -0.13166779309976
C           -6.86105501584846       -0.43388650938585        0.06445372266932
H           -4.70488489253145        2.23399090162746        0.05886387950437
H           -5.79025443791387        1.67316700846059       -1.21012362091879
C           -6.75935226553558        2.77615885772748        0.35956533525571
O           -8.07693291222948       -0.07025184361941        0.61961168339369
H           -7.75638663858761        2.37369849371718        0.14713927593433
C           -6.63922551695214        3.07879817261687        1.85343586572020
C           -6.62599033477116        4.07763020196362       -0.43282570691591
H           -5.65308722286988        3.48221425864446        2.07324396287932
H           -7.38217760037340        3.81741082491976        2.14734662490229
H           -6.78449147654522        2.19548589899478        2.47335318056843
H           -6.73237828620727        3.88929252665343       -1.49819609044807
H           -7.39285223437440        4.78786184508838       -0.13178523808045
H           -5.65199117689146        4.52992401278316       -0.25953267113376
N           -6.70312452920472       -1.39362161992682       -0.71772856891332
H           -9.03486431667317       -0.31202035857530       -0.90200526651889
C           -7.70547763589793       -2.29869231562568       -1.21294001609976
H           -7.15124258744284       -3.07451804313168       -1.75391845723432
C           -8.55812040931102       -2.96152406933053       -0.12178317278153
C           -8.64451939831084       -1.63924922582287       -2.23456392980933
H           -9.17504078513467       -2.23362876287058        0.40065436526370
H           -9.20240358766932       -3.71191035977562       -0.57321317320510
H           -7.90387469701518       -3.44389552608734        0.60094323873815
O           -9.27599744195212       -0.54189994766775       -1.81897137982067
O           -8.82210215678301       -2.09249391114391       -3.32911938264783
