42
 energy: -62.486133515882 gnorm: 0.000479629516 xtb: 6.7.1 (edcfbbe)
N           -1.64419609547077       -1.91016624083335        0.97467814504207
H           -1.61081612209845       -1.59733578445800        1.93951510610976
H           -0.73033998887830       -2.27528618305446        0.73388870135756
H           -3.52267040944325       -2.39966472365135        0.80367883855190
C           -2.01414845279296       -0.80900936958597        0.08904617629067
H           -1.51748215926171        0.14272188630247        0.32232244244836
C           -1.70850204230955       -1.19072093812464       -1.36098017632305
C           -3.51515163938008       -0.61197922552611        0.22452266571956
H           -2.22146094388446       -2.11421604004925       -1.62343583382938
H           -2.03353139775810       -0.39604641536332       -2.02655339658983
H           -0.63912098485325       -1.33945038473462       -1.49424819821150
O           -4.19065385996613       -1.71658127134688        0.59270170022057
N           -4.00474063012374        0.52287642357236       -0.00428624474837
H           -5.03869768666090       -0.85063579660067       -1.70998050502729
C           -5.42216649904427        0.80706918509926        0.00738689571635
H           -5.69602458545243        1.11464571704768        1.02180496147606
C           -5.65061930818223        1.98617341900058       -0.95850904954329
C           -6.31785266466328       -0.34377496924129       -0.38587577292221
H           -4.91778946797668        2.75268336633655       -0.70252265652284
H           -5.42949058837450        1.64706530298989       -1.97440544158411
C           -7.06074713151784        2.58242819031635       -0.92430727508422
O           -5.92144230676951       -1.11429307855400       -1.41895963041722
H           -7.78688564170460        1.78039587794268       -1.09072781176897
C           -7.36686488453614        3.24181051041906        0.41776001546422
C           -7.20417936260448        3.60578326751567       -2.05019111571128
H           -6.63978126048547        4.02271859065806        0.63100075328901
H           -8.35677664677763        3.69039734833906        0.39500474382103
H           -7.34694286911237        2.51704653710516        1.22667747424167
H           -7.02099154059394        3.14604238939168       -3.01877094767593
H           -8.20786228256384        4.02314075743613       -2.05604639490119
H           -6.49441409903151        4.41951849167665       -1.91602693975472
N           -7.45915460904236       -0.43304750275459        0.14036407052779
H           -8.82863160083752        0.34971010667521        1.04217868847119
C           -8.40291945606556       -1.44555335689070       -0.27723669024883
H           -8.40284882044343       -1.58294559387511       -1.36650113788509
C           -8.10383697407962       -2.79157569516641        0.39115817066834
C           -9.79729747461250       -0.97855919231885        0.16180480789956
H           -8.07558962417811       -2.66973823897336        1.47197514488904
H           -8.88147124031380       -3.50408033776147        0.13107649354031
H           -7.13939699698575       -3.16234931259730        0.05338423735827
O           -9.77459377147914        0.08728968859353        0.95401657669261
O          -10.80810712711884       -1.53453328758545       -0.16744618574864
