42
 energy: -62.486133519477 gnorm: 0.000478689304 xtb: 6.7.1 (edcfbbe)
N           -2.18839193777619       -0.24668618749125       -1.74008567872861
H           -2.25634768065585        0.74556222215549       -1.94349751191314
H           -2.15266326062378       -0.74418355774041       -2.62265689151838
H           -1.31660796137189       -0.37164559018413        0.02821772148117
C           -3.33412457657765       -0.69319342152049       -0.94393529868134
H           -4.29944801677933       -0.36288935094446       -1.35219770286892
C           -3.29986950489410       -2.22142810592958       -0.87307560654126
C           -3.11485238640421       -0.09302693259549        0.45184929219574
H           -2.35072003385572       -2.55571622591960       -0.45793839817426
H           -4.10675777205606       -2.60428113514033       -0.25566922292198
H           -3.40860141202071       -2.63886819236858       -1.87254164952254
O           -1.83334399669618       -0.13590056418772        0.82557994188962
N           -3.92677252873312        0.45753157390265        1.24444989563255
H           -5.12446643579852       -1.62049332537415        1.89680366295738
C           -5.35392737715262        0.59330883332161        1.06895000667810
H           -5.74743696655513        0.72394593033126        2.08819923054142
C           -5.66535564891707        1.85914752465656        0.25615275704862
C           -6.00065556266222       -0.64647449134448        0.49813932110909
H           -4.97977421187438        2.63976077509333        0.59137354886389
H           -5.45219491281426        1.65206761117494       -0.79385100688033
C           -7.10966764013760        2.35397853987583        0.39801815663652
O           -5.74239200062007       -1.79194233161060        1.17245817044753
H           -7.78024874768103        1.49255243470441        0.32723009358856
C           -7.33176291726372        3.04298581992359        1.74244693782941
C           -7.43472622201455        3.32185273076128       -0.73895824294336
H           -6.68205175043326        3.91075068661785        1.83429731710764
H           -8.36309327727973        3.37694591025365        1.82882462385637
H           -7.12476407780716        2.37200700701456        2.57206255825938
H           -7.34030338190011        2.83517935985156       -1.70697908026405
H           -8.45222115515521        3.69246168072577       -0.64257702486566
H           -6.75781424043385        4.17322907682028       -0.71415403741210
N           -6.74032949916017       -0.59067419215701       -0.51671377830324
H           -7.30358219945947        0.31649289628324       -2.01250235023747
C           -7.35460184016686       -1.75799533162190       -1.10379553938799
H           -6.73421323655860       -2.65728823619044       -1.00812612517150
C           -8.72715211226458       -2.02659186157804       -0.47626792768646
C           -7.56347581454627       -1.44011472721141       -2.59138335745827
H           -9.34980092203510       -1.13644834317737       -0.54378141513758
H           -9.21278976611755       -2.84244511019634       -1.00414299488874
H           -8.60625092709442       -2.29532588970275        0.57046658697967
O           -7.52482204735009       -0.13808608020419       -2.85789561994806
O           -7.75781498193043       -2.28005289777932       -3.42384218708777
