42
 energy: -62.486133512079 gnorm: 0.000480031430 xtb: 6.7.1 (edcfbbe)
N           -1.85730330105655       -0.69008502590901        1.42986418391575
H           -0.93927192345985       -1.10359334234975        1.31809014872956
H           -2.29635513852097       -1.14021340658065        2.22914248240282
H           -2.74940110491174        1.01775191981042        1.50787737044559
C           -2.67517086606218       -0.91112063665688        0.23652765591496
H           -2.06590259112710       -0.62676593807823       -0.63158207254786
C           -3.17314597540906       -2.34324455769113        0.05821003400456
C           -3.83269802308312        0.07279898448765        0.30236969655223
H           -3.72035801074406       -2.66550206949441        0.94136154886287
H           -3.84476573226253       -2.38485035293052       -0.79199302081577
H           -2.33645953516567       -3.01914802652236       -0.10610751407895
O           -3.61429246704331        1.15630070181995        1.07183165318584
N           -4.88805513740402       -0.16353079415712       -0.33737125257082
H           -8.12680869587050        1.25556404684440       -1.49213589330515
C           -5.99831378181059        0.76223245615977       -0.29757403553552
H           -6.04308221416006        1.26823236115421        0.68004005937986
C           -5.85632853075576        1.82536038440244       -1.40208400390890
C           -7.24961857983347       -0.08586278084049       -0.43139566103702
H           -4.79032755619321        2.00969415582282       -1.54857985105952
H           -6.23194416347537        1.41813926059563       -2.34562739285025
C           -6.53916796606638        3.16114762195091       -1.06367034312847
O           -8.31310670134432        0.38787355459390       -1.11155134049779
H           -7.47968895132310        2.97452521108235       -0.52874238567153
C           -5.64197111531715        3.99511475193865       -0.15089814269944
C           -6.85466205353110        3.93711454760537       -2.34194898027685
H           -4.74583901703493        4.30230066000367       -0.68573505566773
H           -6.16314332346897        4.88745857116109        0.18784311741776
H           -5.33538979743050        3.42234528531612        0.72066622557206
H           -7.54789775937267        3.39015214918275       -2.97906418182398
H           -7.30206501779538        4.89849813440213       -2.10107732157431
H           -5.94265625525130        4.11705575895784       -2.90680406934162
N           -7.24085207330996       -1.19696206793067        0.15504965267292
H           -6.25723075570076       -2.37122793370861        1.00949802098073
C           -8.31877675252597       -2.15170110839120        0.15063811134363
H           -9.23985996609015       -1.72220421783455        0.56425457184582
C           -8.61538439775295       -2.71605040515115       -1.24289890410068
C           -7.85983777150561       -3.30918178583599        1.05761249316562
H           -7.69757868832274       -3.09276037774758       -1.68997015209458
H           -9.32976921265776       -3.52980910736983       -1.15465025069899
H           -9.02783793525580       -1.93885487724933       -1.88061698357092
O           -6.58325638973219       -3.22072315702225        1.40743880400575
O           -8.58061606704348       -4.20829444108948        1.39269826990373
