42
 energy: -62.486133503178 gnorm: 0.000480912120 xtb: 6.7.1 (edcfbbe)
N           -1.19211334869580       -1.55120858888936        0.06541112651401
H           -0.69019073492881       -0.96800503370379        0.72709786511076
H           -0.50794593249325       -2.05387660279099       -0.48744473376529
H           -2.83766404686138       -1.98414912915733        0.96305940793516
C           -2.05607258376928       -0.73983319835759       -0.79141915300057
H           -1.61364267429112        0.21944784683554       -1.09083440286293
C           -2.43655332673744       -1.52931802011491       -2.04435256104845
C           -3.32915264301836       -0.45827947729275       -0.01157177024425
H           -2.88795170881414       -2.47961688972095       -1.76712772524687
H           -3.15021671766757       -0.95810200755681       -2.63007486050464
H           -1.55516046063622       -1.72375967462699       -2.65198082595291
O           -3.59780428032080       -1.36501070725039        0.95296157034545
N           -4.01266205212824        0.54934636868882       -0.30639232641479
H           -5.30082102916590       -0.71395905130758        2.16674896715864
C           -5.29740474742774        0.89424084006013        0.26987688144061
H           -5.10541060228172        1.37509018671853        1.24173608987592
C           -5.93684169938613        1.91264418342457       -0.68087220698966
C           -6.19582730575779       -0.30084755464333        0.51948859865385
H           -5.21112417661579        2.71454034412143       -0.82390980676813
H           -6.08158698188133        1.41931455442371       -1.64171898654243
C           -7.26817623891401        2.49886658537335       -0.20365308402984
O           -6.13356294083412       -0.91323279197365        1.71863922817510
H           -7.97302695071417        1.67749579060876       -0.04389436357810
C           -7.11703250363371        3.27432089884314        1.10379582695305
C           -7.83056234299285        3.41441074022580       -1.28974976962565
H           -6.33908693723824        4.02966165634259        1.01142268088483
H           -8.05045284139258        3.77405588536445        1.35296325549473
H           -6.86477847250762        2.61381892379723        1.92978341855829
H           -7.96203209384120        2.86978670444357       -2.22142381195641
H           -8.79537016267451        3.81616582509822       -0.98911764724635
H           -7.15409125624033        4.24714322968088       -1.47070828776501
N           -7.00327301909851       -0.65597944799900       -0.38025831745426
H           -7.46497908830575       -0.65561403854222       -2.12058945249341
C           -7.88651625969703       -1.78507199761137       -0.21398346617771
H           -7.40118515133321       -2.61803829952947        0.31067171924706
C           -9.15467823501804       -1.39072617696123        0.55184137723720
C           -8.29575038853763       -2.24437766808952       -1.62128345166585
H           -9.63750132511094       -0.54676449335920        0.06264108707428
H           -9.84148098738967       -2.23223407041240        0.56812167739580
H           -8.89816151700733       -1.11204219079155        1.57099886725888
O           -7.95950810140471       -1.38127160759346       -2.57249655115747
O           -8.87883739877434       -3.27105778419271       -1.83346681473392
