42
 energy: -62.486133508965 gnorm: 0.000479821099 xtb: 6.7.1 (edcfbbe)
N           -1.45650890662010       -1.79942514588512        0.78276960477321
H           -1.45565835088595       -1.54369484205398        1.76488096547505
H           -0.51150519643786       -2.06224911670064        0.52883606306579
H           -3.26498998914461       -2.45559642018321        0.55367475461831
C           -1.92450706993021       -0.68558608741733       -0.03882228241549
H           -1.52656986898122        0.29303938973317        0.26173591046169
C           -1.56822980584857       -0.94183820583534       -1.50442264321081
C           -3.44064229833877       -0.64317050734886        0.08665927383473
H           -1.95765699966592       -1.90716900841899       -1.82267453214920
H           -1.99355363260553       -0.15993287343160       -2.12698874356953
H           -0.48846671960876       -0.94376131469215       -1.63603892418250
O           -4.00114568617298       -1.84024502231406        0.36035272791966
N           -4.02341705907654        0.45623384626906       -0.06414718458968
H           -5.23885917683100       -1.25507953475699       -1.50131906480302
C           -5.43961769642839        0.71661094541397       -0.04618926071116
H           -5.65533867389657        1.18684822373162        0.91891968830099
C           -5.70899216109430        1.74384065063345       -1.16839228685316
C           -6.39828410718378       -0.43927964129547       -0.21704498696053
H           -4.93089024628237        2.50463175788979       -1.09197803223711
H           -5.58627966714471        1.24104039979829       -2.13188469322111
C           -7.08799123623734        2.40777603454106       -1.12198744616173
O           -6.13384433264652       -1.36412360979110       -1.15811995707155
H           -7.85598781623857        1.62815808997818       -1.10566527732605
C           -7.25770747857539        3.28140808332398        0.11786556539102
C           -7.28277789409788        3.25136084848744       -2.38147311059700
H           -6.49108267878027        4.05305118977895        0.14571113673675
H           -8.23167675274097        3.76391367259877        0.10254174416479
H           -7.19153379982879        2.69238700298996        1.02819242261137
H           -7.20460697650904        2.63768078681290       -3.27612371030535
H           -8.26367444241139        3.71961598640830       -2.37481106423740
H           -6.52877821710265        4.03409560058526       -2.43422503917387
N           -7.50545645003927       -0.37828821727931        0.38504373092459
H           -8.74288955756366        0.60307540618379        1.26992943591716
C           -8.53941456320296       -1.36466478988881        0.16500175421823
H           -8.64121752763556       -1.62006155780701       -0.89795172347045
C           -8.26863229301015       -2.64807904521562        0.95700835684975
C           -9.86087687967145       -0.75413359700091        0.65270880970352
H           -8.12926532224770       -2.41071024140708        2.00973341250649
H           -9.11433248832807       -3.32158199368082        0.85117116066229
H           -7.36919681265944       -3.12928218260739        0.58107782799541
O           -9.70739854169233        0.39873788786474        1.29393002668423
O          -10.92673589351546       -1.27757846556399        0.48145009521511
