42
 energy: -62.486133507549 gnorm: 0.000480492006 xtb: 6.7.1 (edcfbbe)
N           -1.04401815281312       -0.47367129945836       -0.93460588713388
H           -0.37796655340945       -1.00781647707209       -1.47996910190694
H           -0.76161357284954       -0.53977419468791        0.03966915441636
H           -1.98062875229844        1.23265363803827       -0.98170217634942
C           -2.39413735632495       -1.01617528819574       -1.09263284862286
H           -2.58124562718779       -1.10110300703667       -2.17138684894988
C           -2.62978678031258       -2.37324798252295       -0.43781281987737
C           -3.37200135462159        0.03399227513307       -0.57886477262228
H           -2.40631086155067       -2.32047762326153        0.62564448100819
H           -3.67424436623789       -2.64010654517041       -0.55491511158492
H           -2.00118101567646       -3.13363481044820       -0.89682903080868
O           -2.90766284342791        1.30038178672434       -0.67811484550250
N           -4.47313632771674       -0.35137317512600       -0.13071759570616
H           -7.72663069194063        0.62835252577957        1.46907259197034
C           -5.58280995012457        0.43442540221055        0.32749460104772
H           -5.46958252423044        0.57959840747816        1.41215767100115
C           -5.72621433314485        1.80237098660418       -0.38193675472446
C           -6.81938534227234       -0.40336609098143        0.07867381399569
H           -4.78899419235724        2.34252985483216       -0.24834666892778
H           -5.83846243322064        1.59039072691019       -1.44791784360527
C           -6.87328866253268        2.71222855985387        0.07199258547282
O           -7.93220997036291       -0.07400167765097        0.84050432631185
H           -7.83194528793455        2.19498648976995       -0.04258759902435
C           -6.70376376780107        3.16600254328255        1.52260938646536
C           -6.91669930981465        3.93957170256752       -0.83884910273270
H           -5.78042018383747        3.73181915105680        1.62763741184545
H           -7.53174000423544        3.80753536822580        1.81700968581993
H           -6.66193278229396        2.33193228860422        2.22223681846230
H           -7.08331848061822        3.64308374417469       -1.87136562282893
H           -7.72238793736045        4.60644093743217       -0.54016986295899
H           -5.97822483350829        4.48691635357600       -0.78519234980666
N           -6.78441621729605       -1.34709842883230       -0.73544609493607
H           -9.14075511557907       -0.31750298290138       -0.47746882629223
C           -7.84506099418608       -2.25984480230994       -1.06899440811156
H           -7.38355646652185       -3.01468398313567       -1.71624774119930
C           -8.48252606185140       -2.95988986854614        0.13989444385119
C           -8.95811215105096       -1.59819423353171       -1.89620197561765
H           -9.00553869359381       -2.25352166281421        0.78080611356788
H           -9.18742376985132       -3.71138818674091       -0.20698322466557
H           -7.70397505029946       -3.44596117370860        0.72331639544170
O           -9.53181195068812       -0.52790690630460       -1.34669834249232
O           -9.31107052123732       -2.02649836051725       -2.95782693355137
