42
 energy: -62.486133518648 gnorm: 0.000479244419 xtb: 6.7.1 (edcfbbe)
N           -2.81000373512388       -1.81203845711395        1.82214954120344
H           -1.91350729302117       -2.26647248406923        1.94348188376244
H           -3.53128867155748       -2.52633281210845        1.89804056778408
H           -3.93764891299758       -0.43517421634259        2.43750845389008
C           -2.89547170010766       -1.15651677536465        0.51951641096780
H           -1.99021409834596       -0.54991173144061        0.39360228331952
C           -3.03567820417475       -2.11130121941266       -0.66545942381542
C           -4.08218805766385       -0.20772855602518        0.58230143510058
H           -3.90808096299312       -2.74652756521279       -0.52550135976056
H           -3.17022490415750       -1.53708722129629       -1.57589357957968
H           -2.15141072140376       -2.73873380625852       -0.75792160727173
O           -4.51135238717999        0.07483944737485        1.82624111141270
N           -4.59388166742818        0.23727580839759       -0.47706084455352
H           -7.77610358331514        1.02976549587978       -1.90830560805101
C           -5.78850348470580        1.05548205488818       -0.40744293629442
H           -5.84895957435304        1.58038899613519        0.55723891644231
C           -5.75405804037597        2.06792308947313       -1.55615912158756
C           -6.95981487356557        0.08091034813932       -0.45652433639042
H           -4.72974259640811        2.43933611403777       -1.62199940450561
H           -5.94804958987578        1.55051528481843       -2.50069643163564
C           -6.70543069500683        3.26112541523251       -1.37033678328798
O           -7.95146594827411        0.26380642189975       -1.34589587118998
H           -7.65752328777659        2.91783740348700       -0.94611561029840
C           -6.10790060091137        4.28026406304783       -0.40206218690044
C           -6.98527716642692        3.92625404545423       -2.71770689789501
H           -5.18548391970378        4.68998098955671       -0.80784377381585
H           -6.80336126370231        5.09954750130691       -0.23545252856040
H           -5.88579862957398        3.82258409847398        0.55863967704176
H           -7.46916740925414        3.23796049264497       -3.40865468549243
H           -7.63514970904067        4.78842581164263       -2.58860260703978
H           -6.05521684969043        4.26422753088881       -3.16926745664344
N           -6.91752486840187       -0.87436149162217        0.35977511775414
H           -5.97674930900421       -1.58333070412210        1.67338600952488
C           -7.84030657528935       -1.97457588420047        0.44985891740120
H           -8.79722522150599       -1.63895027936446        0.87269469109605
C           -8.10515675647744       -2.69900533838097       -0.87166407217265
C           -7.21392575089575       -2.96106479836602        1.45689314476919
H           -7.15995664457541       -2.93018360891632       -1.35934512467666
H           -8.63310440193700       -3.62567238141404       -0.66383904916737
H           -8.70206984334086       -2.07946607939407       -1.53437559204409
O           -6.11284562387263       -2.49857309442652        2.03729938306579
O           -7.66936774117958       -4.04746775243482        1.68443460617093
