42
 energy: -62.486133515390 gnorm: 0.000479542136 xtb: 6.7.1 (edcfbbe)
N           -1.82339052301782       -1.17889063143640        1.32626918926503
H           -0.87807113636405       -1.52520907947203        1.21584371031435
H           -2.34114678596757       -1.87068583681066        1.86222540358792
H           -2.80440313245198        0.37970130193165        1.85921082820187
C           -2.46533184359628       -0.98274578973240        0.02685233274305
H           -1.75660809302176       -0.43658727652390       -0.60931798240662
C           -2.88703821118215       -2.27158225932661       -0.67575026427706
C           -3.65856311772028       -0.06475755718579        0.25193631081766
H           -3.57282759073842       -2.83247387794000       -0.04373039510137
H           -3.39918003441423       -2.02698857685934       -1.59994032974244
H           -2.01808806696483       -2.88933593235015       -0.89422817259255
O           -3.60441977438892        0.66904795137164        1.37548672901068
N           -4.58736289103097       -0.03555106235679       -0.59511597040473
H           -7.07287912033106        0.50315024482289       -2.44943821313013
C           -5.73743578928973        0.82955168274292       -0.39714748070411
H           -5.78502930258618        1.17631040839657        0.64292990053681
C           -5.64447952910267        2.03398153735105       -1.33866891518501
C           -6.93007151371059       -0.07542678680248       -0.63322040868530
H           -4.72918424997373        2.57276159344575       -1.08277881216086
H           -5.51548684116327        1.68127546343563       -2.36792321178944
C           -6.83399390509658        3.00013051143438       -1.24770664196669
O           -7.51793254118622       -0.10118128682018       -1.84191205117799
H           -7.77130907652705        2.44191428853603       -1.35390330835663
C           -6.86328281837170        3.72025601908203        0.09857531887539
C           -6.74936208680373        4.02064447657059       -2.38263839091562
H           -5.93170848144788        4.25772030905744        0.26211717348905
H           -7.68137183201406        4.43643924552045        0.12229963122470
H           -7.00602152123214        3.01886548878203        0.91609427986319
H           -6.76306537861968        3.53084191329076       -3.35447038137151
H           -7.58973769694146        4.70898774334288       -2.33762658550815
H           -5.83030711146498        4.59734465681249       -2.30305382933037
N           -7.26250474015688       -0.84551797752414        0.30700627921753
H           -7.13776789857490       -1.30943412585176        2.03126450893873
C           -8.31704498152530       -1.82501707898867        0.17620270004849
H           -9.23338679960372       -1.38065423808309       -0.23229953563835
C           -7.90470954913228       -3.00701966259223       -0.70809626341959
C           -8.61251156889816       -2.35415420142910        1.58877090364604
H           -6.96129792478927       -3.41966301701125       -0.35632130907047
H           -8.67178084445962       -3.77472396682096       -0.65782624147968
H           -7.78489624707288       -2.67897836282931       -1.73695930934168
O           -7.75240545017406       -1.92272261052581        2.50324684426294
O           -9.51879525591018       -3.10164945008885        1.83267708899515
