42
 energy: -62.486133516594 gnorm: 0.000479670375 xtb: 6.7.1 (edcfbbe)
N           -1.34919746137155       -0.88026567698808        0.96871762178252
H           -0.40925713366587       -1.18704712700006        0.74953823902516
H           -1.72517955650016       -1.52112417100595        1.66250824849491
H           -2.34814506638498        0.69570788725130        1.45165395615955
C           -2.19558760588336       -0.89348444228923       -0.22372959685008
H           -1.63464633521264       -0.39776841247451       -1.02680791806830
C           -2.62051968673144       -2.28495704889933       -0.68807561638711
C           -3.40371709062912       -0.01808457591528        0.07624913209590
H           -3.15864494609957       -2.79518556202197        0.10821639733763
H           -3.28324450380684       -2.19533418371780       -1.54182691319864
H           -1.75047202746068       -2.87679264055246       -0.96563802547989
O           -3.23104029089388        0.87011397826412        1.06773905888659
N           -4.45649744786724       -0.15675285194365       -0.59769632323057
H           -6.28043249703393       -0.08588536753048       -2.50306025456705
C           -5.61471365022935        0.67605475828103       -0.32980749809531
H           -5.67561592186087        0.92819709289786        0.73554895120706
C           -5.55578665735224        1.96632613288565       -1.16013586568399
C           -6.79796117718151       -0.19519207982808       -0.67987765433279
H           -4.75512446738928        2.58464997058097       -0.74899603135807
H           -5.27464494316691        1.72187100751712       -2.19012530223959
C           -6.86707103250703        2.76064091814112       -1.16397400814742
O           -6.99885354726315       -0.46619791049996       -1.98179017977327
H           -7.66063133164421        2.13631607694721       -1.59039818498928
C           -7.28353729316985        3.16690731875974        0.24737091041482
C           -6.70447977274082        3.99922642078121       -2.04401450779707
H           -6.47798713144485        3.70619736558472        0.74100822539912
H           -8.15597829889196        3.81483442049667        0.20670357084955
H           -7.53843134776595        2.29518971740417        0.84400976323249
H           -6.41789167445514        3.72302596144462       -3.05670182901055
H           -7.63768553849379        4.55467946630246       -2.09365259600749
H           -5.93722962585049        4.65405069858757       -1.63641754856304
N           -7.47182230544981       -0.71182825581246        0.25025383112646
H           -7.98322070357669       -0.74048576229419        1.98560752535544
C           -8.56135844849726       -1.62648676536242       -0.01461313048489
H           -9.20910092771877       -1.26665065259911       -0.82363200698991
C           -8.04880966867526       -3.02505433652616       -0.37643051570254
C           -9.39075019805565       -1.73116464536634        1.27347401796432
H           -7.36094321113915       -3.37608674770204        0.39015963040461
H           -8.89002297209862       -3.70923452808495       -0.44233625173245
H           -7.52933394917573       -2.99375860832432       -1.33052358727610
O           -8.81721391116218       -1.14766398969670        2.31949575382242
O          -10.44340989835030       -2.30352867190869        1.33094156187945
