42
 energy: -62.486133515100 gnorm: 0.000479628337 xtb: 6.7.1 (edcfbbe)
N           -1.08554948457337       -0.54717759554378       -1.30805254060531
H           -0.31165693342718       -1.17913871621844       -1.47190235013974
H           -0.71081177798407        0.28500628337695       -0.86068412857241
H           -2.55310745614311        0.18491760410511       -2.24966115645245
C           -2.09414599890037       -1.16209365739471       -0.44489458323423
H           -2.25451081423307       -2.18640273931006       -0.80476911762611
C           -1.73046380588825       -1.19975866642392        1.03657706628100
C           -3.39870173480034       -0.40659058120631       -0.67406617227009
H           -1.53514368523962       -0.19253963669418        1.39963983272960
H           -2.56201710615299       -1.61005881377893        1.59907158797868
H           -0.84576045268481       -1.81246309075692        1.19701033511928
O           -3.45024628243204        0.25023778805330       -1.85913797600025
N           -4.31940345901146       -0.50671545850715        0.17013238237342
H           -5.34207969925534       -0.89497737099775       -2.00152866043458
C           -5.58654723616851        0.18465599623051        0.14140160912063
H           -5.90128555003157        0.23557385350655        1.18847034220637
C           -5.56042577376365        1.60544413411228       -0.45328152362064
C           -6.61129122099423       -0.64909908719096       -0.59467099577793
H           -4.69800693020456        2.12802400042297       -0.03229739500242
H           -5.41434504149731        1.54350915099187       -1.53389243746416
C           -6.83325894450061        2.40974273918086       -0.16762331579993
O           -6.23403565893958       -1.18942202602313       -1.76812022250284
H           -7.70072365222501        1.79483172959997       -0.42772934853597
C           -6.94080033414704        2.80454605328437        1.30311279354980
C           -6.84749053255412        3.66338820380982       -1.04178610124652
H           -6.08695460224359        3.41239918414519        1.59641411982423
H           -7.84600454549781        3.38374872217038        1.46758647025585
H           -6.98081135665919        1.93046666664068        1.94705184254237
H           -6.82204543904781        3.40097921830239       -2.09703297579844
H           -7.74803185597895        4.24354287654931       -0.85688425582592
H           -5.98481017338578        4.28947986880020       -0.82200470905894
N           -7.78078012002530       -0.72722107288849       -0.13382077720359
H           -9.07181195714903       -0.06973352126292        0.96757493624595
C           -8.83084832119408       -1.42962594554779       -0.83594548199764
H           -8.79372706099016       -1.24752412835898       -1.91797363414314
C           -8.76278594473087       -2.94027953758128       -0.58784640178308
C          -10.16773433011443       -0.90661753338935       -0.29021159010490
H           -8.75766599494930       -3.14099417791974        0.48151264413025
H           -9.62961838561312       -3.41674990469798       -1.03704416282404
H           -7.85583546767707       -3.34623059039939       -1.02888208963343
O          -10.03832957587200       -0.14696256080739        0.79122972398611
O          -11.22658656980192       -1.17414341524892       -0.78610649951620
