42
 energy: -62.486133512240 gnorm: 0.000479675852 xtb: 6.7.1 (edcfbbe)
N           -1.02892746594671       -0.63569556331044       -0.40908453364645
H           -0.32953875748905       -1.33420401207139       -0.62981382279792
H           -0.77603011003913       -0.22287675384521        0.48490644353252
H           -1.93778781016727        0.83083103469761       -1.20903513334303
C           -2.35822528483371       -1.23867408479414       -0.31479026298618
H           -2.48359476583575       -1.88823003493813       -1.19089697694970
C           -2.60212995318758       -2.05175428396047        0.95335272349145
C           -3.37773527535739       -0.11065988074307       -0.45962378760107
H           -2.44487646598267       -1.42936303276110        1.83193535452234
H           -3.62869489167821       -2.40112161139898        0.96337298686631
H           -1.92686537546922       -2.90394873076492        0.99607307170924
O           -2.89543219735199        0.98822296527527       -1.07475563546900
N           -4.54142537776224       -0.30509672802718       -0.03788133896489
H           -6.11123794657246        0.08540513772099       -2.40303199034109
C           -5.66399269962103        0.60084059750385       -0.07660736990257
H           -5.91250568533923        0.78313114803889        0.97528708517521
C           -5.50845636042246        1.94068433288318       -0.80919313907808
C           -6.79340699915264       -0.23672640216314       -0.64535521779840
H           -4.74988993779373        2.52827464088552       -0.28996091089595
H           -5.13445322720470        1.77521082172361       -1.82414696720034
C           -6.81368453414206        2.74449862858123       -0.87889472532950
O           -6.82355147397434       -0.41231562679420       -1.98144609675161
H           -7.57547435206237        2.14849220907580       -1.39513323078243
C           -7.34238604313620        3.09212777576953        0.51075687853317
C           -6.57550782106859        4.02160435919899       -1.68383324087855
H           -6.57491703651503        3.59573669803020        1.09488444664478
H           -8.19914253292877        3.75667133475108        0.42712713631177
H           -7.66123879321358        2.20023559859746        1.04350793371149
H           -6.21364790817641        3.79075237559898       -2.68367697585099
H           -7.49753632205279        4.59004213912609       -1.77802876493188
H           -5.83596231228386        4.64692064531110       -1.18826147911325
N           -7.60309337805620       -0.79210919630525        0.14088430307258
H           -8.36140029880099       -0.93627525852656        1.78658065251711
C           -8.65575945162064       -1.66081571526208       -0.33734744464424
H           -9.15054033645580       -1.25541753484723       -1.22876914772212
C           -8.12178351897682       -3.06098182173801       -0.66026313895839
C           -9.68772810688569       -1.78792995434371        0.79235255571638
H           -7.59174824772368       -3.46202612152214        0.20116069708165
H           -8.95346909832823       -3.71527305915237       -0.90598606796036
H           -7.43796539581364       -3.00984150434524       -1.50358410472638
O           -9.25800167758619       -1.30998603617385        1.95423854534253
O          -10.76644601880239       -2.29038530193953        0.64191574557411
