42
 energy: -62.486133515233 gnorm: 0.000479517996 xtb: 6.7.1 (edcfbbe)
N           -1.06825958136040       -0.34221821968462       -1.61539360375327
H           -0.33728606573234       -0.96528902744472       -1.93503184010938
H           -0.63203849735011        0.37629653156766       -1.04449684647540
H           -2.54436951960067        0.62253910216622       -2.31227005563816
C           -2.07036683699985       -1.06080801884426       -0.83164861786213
H           -2.31401279003908       -1.97936735827070       -1.38134908395056
C           -1.62625292685217       -1.42133521356978        0.58404311220822
C           -3.33913821277405       -0.20540424091164       -0.83204980775388
H           -1.35466497263528       -0.52059325195031        1.13036893206487
H           -2.43745041435935       -1.90798272221373        1.11436072927274
H           -0.76741446768311       -2.08870534452631        0.55277190465619
O           -3.39746066515493        0.68065132397643       -1.83140026206006
N           -4.19040463884005       -0.41215026212162        0.07074348850155
H           -5.09806603555691       -2.07856514979138       -0.06441606293666
C           -5.49853020181302        0.20231963474662        0.20863560777789
H           -5.62879715851320        0.31012552831258        1.29505285800286
C           -5.64852108152624        1.57968650757399       -0.44968034162499
C           -6.50989917401691       -0.84237235036836       -0.23823805407274
H           -4.78717040524347        2.16881959516460       -0.12264481292570
H           -5.57788251741178        1.46296973555819       -1.53105275253815
C           -6.92378494906273        2.36967151464314       -0.13369743754379
O           -6.04438800232735       -2.10399255754624       -0.30041432047837
H           -7.74605447690241        1.93482545348507       -0.70476564370183
C           -7.29348466518574        2.34964759838896        1.34632165773677
C           -6.73423867624992        3.81133104042750       -0.60660327401203
H           -6.45680880235525        2.68369437377698        1.95696699318153
H           -8.13270343979724        3.01766415674322        1.52618119709228
H           -7.58495820295417        1.35103871195002        1.66048652084220
H           -6.44408941338961        3.83552424415474       -1.65418686413131
H           -7.65895185818850        4.37203652466808       -0.49472385903345
H           -5.95998819989338        4.30690498261491       -0.02398403878308
N           -7.70668926501591       -0.53913782277448       -0.49005256532675
H           -9.15586129137138        0.62630544031382       -0.59507065579917
C           -8.65257524960872       -1.56412425072202       -0.88417974595078
H           -8.23705821099197       -2.22700698291942       -1.65245631008831
C           -9.10245950277116       -2.41394395627446        0.31180848528217
C           -9.89594398274326       -0.86157488660342       -1.44055028944848
H           -9.49619460613300       -1.77207656329889        1.09793366631918
H           -9.87991370903471       -3.10202810370629       -0.00831439759338
H           -8.25988872052312       -2.97848558667222        0.70239354498666
O           -9.98546950836826        0.41320951191459       -1.07908107901210
O          -10.72670037277445       -1.42012544895034       -2.10138099619490
