42
 energy: -62.486133509705 gnorm: 0.000480241694 xtb: 6.7.1 (edcfbbe)
N           -1.73149167690404       -0.13525557541028        1.37619024148222
H           -0.80211958691248       -0.52112735770375        1.25885410557911
H           -2.07739985815097       -0.44859442449384        2.27941237233562
H           -2.69484431630771        1.53568825327778        1.16596921471419
C           -2.62761631495722       -0.60862989101518        0.32005203561536
H           -2.11236681289740       -0.44248994937775       -0.63590977799369
C           -3.03042853033635       -2.07662458967165        0.42678850539153
C           -3.83978434922410        0.30831847447856        0.32414803624096
H           -3.52111511310398       -2.26626415206083        1.37824165894304
H           -3.72666231301002       -2.31745051164234       -0.36842171132071
H           -2.15411425449371       -2.71655019611747        0.34595555230926
O           -3.60625210621545        1.54414059152584        0.81125730819450
N           -4.94343229378417       -0.11112956907598       -0.10241502414976
H           -8.43673826256426        1.36963058922758       -0.50640043192509
C           -6.09718733461264        0.74913742940988       -0.17507160190851
H           -6.11213385652008        1.46273255677966        0.66573614350815
C           -6.12188669949203        1.53649023585607       -1.50884583734336
C           -7.32000194782722       -0.13407493180912       -0.06348637961660
H           -5.11932182209885        1.50356195778441       -1.93832308766706
H           -6.78220061127842        1.01998133843156       -2.21046531943346
C           -6.54716927269702        3.00592631983089       -1.36780978397900
O           -8.52919619090335        0.43779361830713       -0.27154184138597
H           -7.38231432027184        3.08615607236393       -0.65804703151441
C           -5.39346819783475        3.85096204988336       -0.83283988295626
C           -7.01744761383304        3.54772659492206       -2.71677734076405
H           -4.59493889467467        3.90018275065502       -1.56990755742945
H           -5.72723749439542        4.86390212242153       -0.61971061916500
H           -4.98577470084584        3.42074834237914        0.07775608385086
H           -7.88243267780645        2.99694000533471       -3.08132333447714
H           -7.29181693079803        4.59640619879284       -2.62929110916856
H           -6.22221887581432        3.46240299825481       -3.45376936405308
N           -7.16975282883740       -1.34171125157032        0.23868143147337
H           -6.03782436749718       -2.59069500928291        0.77161920580957
C           -8.24298655108678       -2.28683803655688        0.40157229544452
H           -9.04836512160938       -1.89226829544731        1.03431852259453
C           -8.83755369546993       -2.72574264479971       -0.94070489503745
C           -7.62334240660383       -3.51705269982278        1.09045556531206
H           -8.04433299577387       -3.07228945786155       -1.60001781165977
H           -9.54184921914301       -3.53573712443084       -0.77301910074784
H           -9.35105793446153       -1.89065658250351       -1.41056966660470
O           -6.30114268098790       -3.46351041429570        1.16484437328589
O           -8.27687022114338       -4.43616131170390        1.50175034452541
