42
 energy: -62.486133512423 gnorm: 0.000479555209 xtb: 6.7.1 (edcfbbe)
N           -1.93604258633826       -0.05824569902651        0.56964960469429
H           -1.15787311003984       -0.48052980226248        1.06594280564719
H           -2.48149180703431        0.48098678681933        1.23409543531664
H           -3.92734247880210       -1.28694181948759       -2.14954895872957
C           -2.78836851334079       -1.09266166727217        0.00659759897999
H           -2.26850948111811       -1.49489309400987       -0.87693779678945
C           -3.09070718630577       -2.24726094643316        0.97559906926771
C           -4.08904658673330       -0.44708762375695       -0.42337462363797
H           -3.60959604342001       -1.86044278769626        1.84868224347910
H           -3.71293150020526       -3.00378858950290        0.50543113339279
H           -2.16050443383255       -2.71506829305020        1.29304034798235
O           -4.53362938916662       -0.70430461758860       -1.67513029886996
N           -4.69610627297612        0.26414998280201        0.41560742519090
H           -8.23158716098404        1.50341933141503       -0.43446665059084
C           -5.91040401303989        0.98537251928553        0.11259915770973
H           -6.07995481057758        1.61909293389421        0.99475418977058
C           -5.74222429580363        1.87817912818171       -1.13785507753386
C           -7.08331647264508        0.03388884059670        0.02683073374179
H           -4.70010858890976        2.20846383721301       -1.12266400158766
H           -5.87360509809645        1.25880205159883       -2.02716443174948
C           -6.62183564849795        3.13224509690320       -1.26613594663466
O           -8.28745318238001        0.54968844022708       -0.29849892887118
H           -7.65247369988294        2.85516302889102       -1.52555056582469
C           -6.64260239373517        3.98250159649423        0.00326926818346
C           -6.08780483450744        3.96637089778531       -2.43305032401514
H           -5.62733486976231        4.19378022149243        0.33084217457900
H           -7.14178299172365        4.92892901615257       -0.19325013020238
H           -7.17285535448300        3.49326406163783        0.81802059960575
H           -6.04691431181384        3.37198051710334       -3.34285923328377
H           -6.72966141052269        4.82558544601015       -2.61378614581142
H           -5.08562688209986        4.32679646998549       -2.21271498548741
N           -6.92653673033698       -1.17718156152496        0.32929689380413
H           -5.94221836182498       -2.41003185719127        1.15406505739766
C           -8.01347133890713       -2.12755420607771        0.30100727294017
H           -8.89617578703873       -1.74509970164207        0.83070798370479
C           -8.42085065395471       -2.50151011247625       -1.12736913300098
C           -7.52043797839784       -3.39006769602052        1.02559042371106
H           -7.54346568523263       -2.80808318064324       -1.69332928143803
H           -9.12854628800411       -3.32492261955458       -1.09144246574887
H           -8.88012804460934       -1.64857449205303       -1.61995663479831
O           -6.25459252771579       -3.31117655445447        1.41744679198767
O           -8.21007245703103       -4.35525895727462        1.20494438255244
