42
 energy: -62.486133504107 gnorm: 0.000480834897 xtb: 6.7.1 (edcfbbe)
N           -1.71469639628769       -1.86360086441562        0.05922485004636
H           -1.51098747498651       -2.85397433360142       -0.00714075112456
H           -1.37725948765124       -1.54316368605806        0.96284999457182
H           -1.52816413677928       -0.23152242767930       -0.88723025273166
C           -3.15229955455252       -1.61455141365093       -0.04449759635877
H           -3.53127875957182       -2.21369787017659       -0.88223124039901
C           -3.94520260685956       -1.94344523415419        1.21734926074983
C           -3.35172347571401       -0.13821689088669       -0.44142950911200
H           -3.55596484003650       -1.37688524612598        2.06151211030564
H           -4.98405897924872       -1.66634220296884        1.06660799775554
H           -3.88412669252161       -3.00537248575897        1.44846470474143
O           -2.23894718760823        0.43961508590584       -0.94901227211326
N           -4.39370436074299        0.49808369177462       -0.29385885270624
H           -7.04471276849812        0.80158238785093       -2.31330502824488
C           -5.64875393255979        1.09850780219430       -0.28491023258952
H           -5.82254906083178        1.43109488127217        0.74716036566300
C           -5.70584029923985        2.32702661176488       -1.21724257434341
C           -6.71119311976158        0.04109842595000       -0.58564152260563
H           -4.84298182898632        2.94766035535708       -0.97055145733361
H           -5.55742384632070        2.00593171468435       -2.25392433157487
C           -6.98952093785894        3.15937637193794       -1.07976259533779
O           -7.31166795760009        0.03450879505877       -1.78997513243589
H           -7.85854581078563        2.49277484167385       -1.01913715930522
C           -6.95875112577677        4.00456174442840        0.19198363485488
C           -7.15871248259246        4.06413212363260       -2.30026493926170
H           -6.12131084238486        4.69826943538547        0.16462481289207
H           -7.87720236565312        4.57959457411138        0.28483271696202
H           -6.86078424941245        3.38088734189493        1.07688257299206
H           -7.24778340017591        3.48190216521717       -3.21584331531205
H           -8.05294785738123        4.67455554630796       -2.19998399142259
H           -6.30155600105389        4.72629743723824       -2.39864380823022
N           -6.91483026046223       -0.86525586399147        0.26958112279420
H           -7.03396151736174       -1.30267142710475        2.04750240753222
C           -7.82797162098229       -1.95713497251232        0.00800135332629
H           -8.73537000190703       -1.61022381458443       -0.50404848140556
C           -7.17763755510878       -3.05354206285644       -0.84182877496832
C           -8.23995853497490       -2.55577724248929        1.36081942954222
H           -6.25363024744245       -3.38728861776094       -0.37517344037819
H           -7.86108199548969       -3.89428168059582       -0.91914469073698
H           -6.95733330339712       -2.67184529926434       -1.83540863270569
O           -7.62618851947148       -2.00371280784304        2.40239202425940
O           -9.03557435686343       -3.44698802242077        1.46390805318549
