42
 energy: -62.486133515878 gnorm: 0.000479863514 xtb: 6.7.1 (edcfbbe)
N           -2.14767075563295       -1.42708795523028        1.81124886935097
H           -1.72880633497708       -0.66806157880438        2.33772038351173
H           -1.45576596675420       -2.15917506230652        1.70699778442431
H           -4.01804358651666       -1.33413833660533        2.28355895114464
C           -2.61789725509949       -0.96436408125739        0.50758442535470
H           -1.95101823435512       -0.23664145963917        0.02487696013285
C           -2.80980885180731       -2.16163722976270       -0.42482069685295
C           -3.96908714424350       -0.29896006154681        0.72317768082543
H           -3.41624935635953       -2.92335566346055        0.05945640151189
H           -3.30273410240948       -1.83736348119657       -1.33604279206407
H           -1.84532960238240       -2.59475168947315       -0.68238901763453
O           -4.61848558992519       -0.70802851188167        1.82497236469201
N           -4.34523434025543        0.57422125720482       -0.09806985606677
H           -7.90161812989509        1.86438632281737        0.49630387398151
C           -5.63978949608678        1.21027477099366       -0.08301763723838
H           -5.63735247225821        1.98632487174908        0.69842363704989
C           -5.76370456333629        1.86719605873311       -1.47715390139447
C           -6.81632830973927        0.29958008641736        0.18682221678368
H           -4.81156504414862        2.36897394501045       -1.65689920999554
H           -5.84388754477245        1.05585854925124       -2.20312033802527
C           -6.90448290293324        2.86372592240893       -1.70659255744329
O           -7.99857420718313        0.90553481583078        0.45473468658647
H           -7.86875023135002        2.36593007494911       -1.55497893349298
C           -6.80577166663590        4.07802411875942       -0.78285926920963
C           -6.86155250287029        3.33175078574663       -3.16195140187079
H           -5.85845074204068        4.58899090253797       -0.94095152099000
H           -7.61059263114984        4.77861356541483       -0.99533410606845
H           -6.86827533804454        3.80919172925103        0.27049491691886
H           -6.95543712009371        2.48707505470206       -3.83997290171976
H           -7.67522593786738        4.02469873313970       -3.36343778751763
H           -5.92087478269289        3.83626987072011       -3.37065367669362
N           -6.68815918462415       -0.95049670761343        0.20701180069821
H           -5.60923107760626       -2.32775451011017        0.51337838154909
C           -7.79887579222099       -1.83209545938456        0.47947968965047
H           -8.40652743180090       -1.46969608879888        1.31924670383521
C           -8.70291413658897       -2.00627979105819       -0.74462555903739
C           -7.20897943791431       -3.19835579354722        0.86092178360568
H           -8.10656616759753       -2.29946501366740       -1.60636439414731
H           -9.43597274467617       -2.78115779077505       -0.53845513380465
H           -9.21428635829549       -1.07310770238625       -0.96675809197761
O           -5.88479173825401       -3.24022384468889        0.77860563855654
O           -7.88152250254358       -4.13644925572371        1.18836634794249
