42
 energy: -62.486133516000 gnorm: 0.000478929020 xtb: 6.7.1 (edcfbbe)
N           -0.94174028766678       -1.31297665676692        0.39685631577339
H           -0.76099249093229       -0.93787721380967        1.32220386448075
H           -0.05024844221534       -1.44690078908038       -0.06541927987032
H           -2.51449378951640       -2.33292613274501        0.58972349634259
C           -1.79717756121755       -0.41016682498201       -0.37286660250204
H           -1.57799456639386        0.65388457268197       -0.21604686723661
C           -1.68258412460194       -0.73220565212172       -1.86315998148253
C           -3.23532246349905       -0.67352264067478        0.05709702996282
H           -1.90426775017733       -1.78300170467100       -2.03844668194414
H           -2.38754123173554       -0.12439024815260       -2.42216677852146
H           -0.67636542142963       -0.52279377193435       -2.21991955127367
O           -3.41270135556462       -1.93651967710412        0.53766954758291
N           -4.06736634436132        0.24514836108934       -0.06056547697104
H           -5.09669824421450       -2.05149151039062        0.76891947665992
C           -5.48260581622899        0.38037809821774        0.15461417286731
H           -5.58227935212891        0.72096046020147        1.19968507433707
C           -5.95204493954280        1.52438480202663       -0.76263908205221
C           -6.40946714138547       -0.82579804732032        0.06197272870540
H           -5.08226420672534        2.15218049075217       -0.96036099376534
H           -6.27879721772750        1.09359322628253       -1.70897636520900
C           -7.07187835095273        2.38826064077591       -0.16990757053462
O           -6.05155295811963       -2.00564750107063        0.57967149702115
H           -7.81890525705593        1.72899298549379        0.28113456252578
C           -6.53191965749750        3.32842779711030        0.90638424623354
C           -7.73909986160816        3.20522276744252       -1.27499188844866
H           -5.81295384871280        4.02212950064870        0.47542442128974
H           -7.34248801708629        3.90493877746913        1.34614860673969
H           -6.03800906589430        2.77954799741013        1.70457204775308
H           -8.18035181416709        2.55942277243354       -2.02971921721657
H           -8.52647950511586        3.83077484687262       -0.86138640729925
H           -7.00895712175043        3.85092367788329       -1.75869396149672
N           -7.56125182571579       -0.63086597899302       -0.42030634685342
H           -8.65243550287235        0.33632230458716       -1.48044394213749
C           -8.53924066904527       -1.69141568942503       -0.49554129019594
H           -8.08732623199237       -2.64990283928944       -0.78218840705683
C           -9.27770029509430       -1.87465140178159        0.83510410959347
C           -9.56332265895913       -1.28469125272270       -1.56499395108015
H           -9.70147110750728       -0.92606465977664        1.15924245666485
H          -10.07900329902237       -2.59634561753316        0.70378431598703
H           -8.58746320569636       -2.23389615644875        1.59430620012600
O           -9.43358028042678       -0.02537843845779       -1.96506420581544
O          -10.40784797549519       -2.02808964502888       -1.98177412266716
