42
 energy: -62.486133515924 gnorm: 0.000479534873 xtb: 6.7.1 (edcfbbe)
N           -2.20093358261665       -2.16769305200825        1.04666360687365
H           -2.26560059156880       -1.91815846953840        2.02834673495729
H           -1.30455137804906       -2.61613662784779        0.89718513874019
H           -4.06273534269199       -2.44789460322204        0.59799560354865
C           -2.33673659230997       -0.98278030985905        0.20255478500616
H           -1.79807717046516       -0.10187828110623        0.57782328686798
C           -1.85176946900759       -1.29899579589109       -1.21290348963495
C           -3.82006305178200       -0.64628562711936        0.14110744760938
H           -2.39261217413274       -2.15466030926385       -1.61215853147197
H           -2.01901999061566       -0.43930082849008       -1.85487286537793
H           -0.78879600834873       -1.53054832715873       -1.20627322923470
O           -4.63360664239390       -1.69470669839151        0.33951534523860
N           -4.15564296660584        0.53342050384397       -0.12361596852861
H           -6.04013675318571       -0.30160625605659       -2.20434478382976
C           -5.51495063278387        1.01608528359760       -0.22480702534508
H           -5.72105838076226        1.52748311344932        0.72260996916647
C           -5.55647372728214        2.04330451778773       -1.36759318119698
C           -6.56890266087401       -0.05766629147775       -0.38223734602562
H           -4.84869691441437        2.83397678440507       -1.11537248002562
H           -5.18959110522583        1.57728007085543       -2.28823938117933
C           -6.94250022283122        2.64833220940880       -1.61907530446982
O           -6.68756511789694       -0.65880035497736       -1.58388292596592
H           -7.64267823631063        1.84700083701888       -1.88195588997598
C           -7.47941373270265        3.36316299462165       -0.38152647068162
C           -6.86219618773625        3.62046744440084       -2.79553814134543
H           -6.76075001018305        4.09783289814886       -0.02493925018989
H           -8.40599442036035        3.87899365575360       -0.62219901834098
H           -7.68638900662239        2.65695096624815        0.41804400736738
H           -6.48915720018677        3.12275336022251       -3.68832875794629
H           -7.84464220756859        4.02876180181554       -3.01902607002990
H           -6.19380260198985        4.44523147627404       -2.55817885434603
N           -7.27165002925968       -0.36621482760806        0.61671860855687
H           -7.87438058286324       -0.00899482193301        2.28194294384602
C           -8.29014001209695       -1.39018992074286        0.54784014792637
H           -8.88188632041941       -1.31637102206209       -0.37319974730862
C           -7.68856752020740       -2.79685395688547        0.63879334200690
C           -9.21479035972238       -1.18727213678003        1.75559687025558
H           -7.07740179638750       -2.87876287252892        1.53485835980720
H           -8.49035789395797       -3.52857217764706        0.68091647049778
H           -7.06421480403133       -2.98508063865803       -0.23005105602824
O           -8.72285990688720       -0.34445910607160        2.65724676769623
O          -10.26489806980544       -1.75318023118329        1.88349486268750
