42
 energy: -62.486133513383 gnorm: 0.000479973087 xtb: 6.7.1 (edcfbbe)
N           -1.91608393474548       -1.62824241776534        1.24012126978108
H           -1.50725831780614       -0.87886475976108        1.78876952899469
H           -1.20285340067377       -2.33288185226070        1.09539800186716
H           -3.79396571061084       -1.51370119844961        1.76844328304601
C           -2.41384983078218       -1.12143559267509       -0.03654628152205
H           -1.74055746171995       -0.40454098972383       -0.52742825325005
C           -2.68015484078889       -2.29137264927900       -0.98556753871720
C           -3.73447854974917       -0.42775710598871        0.24550934007252
H           -3.36689088285722       -2.99816141077127       -0.52477023254307
H           -3.11825892572322       -1.92309820874931       -1.90819252502859
H           -1.75146484832946       -2.80752161036167       -1.21962865179268
O           -4.38848235660116       -0.87452668653610        1.32477316890456
N           -4.13382020045831        0.48141894561036       -0.52916475034370
H           -5.82769960694190        0.01695834628622       -2.42393984145170
C           -5.44118846266437        1.08829253479636       -0.32368679810978
H           -5.56983577784754        1.37251197332037        0.72684652917131
C           -5.56158505441333        2.31179885857165       -1.23788455338100
C           -6.46989415811808        0.02715979577413       -0.63000997271720
H           -4.89325812380840        3.08389774562772       -0.85324676118997
H           -5.19589417472293        2.04595161743306       -2.23387854844116
C           -6.98529378211553        2.86970799919311       -1.34509582767936
O           -6.49570642971787       -0.43995372999223       -1.89625908190576
H           -7.64409256579690        2.08930434284639       -1.74330140721824
C           -7.52486092517080        3.29984020436308        0.01675281372868
C           -6.99648317795686        4.04995851867351       -2.31532419682584
H           -6.84830529181713        4.01077764827138        0.48634140130773
H           -8.49536271243090        3.77654490308149       -0.09974378598218
H           -7.64616888273973        2.44311006692193        0.67399615870613
H           -6.62620098453028        3.75254910983177       -3.29418216686822
H           -8.00636637025346        4.43443973770103       -2.43501962975806
H           -6.36620903539799        4.85320626933777       -1.93978843330630
N           -7.18955780744534       -0.42531118972842        0.29635808360719
H           -7.73826071189309       -0.39360733695359        2.02106185182580
C           -8.12972677669086       -1.50332378512708        0.09001073088893
H           -8.76683489332678       -1.32722604335347       -0.78539954233905
C           -7.42090830273198       -2.85295186608098       -0.07306693584171
C           -9.01074058075542       -1.57485977819921        1.34634855664585
H           -6.74505025162553       -3.01506458551773        0.76445589516566
H           -8.16144403836978       -3.64755222393591       -0.09505220108997
H           -6.85056307168791       -2.86307134922026       -0.99851366917602
O           -8.54423797576688       -0.85304108434164        2.35711173181743
O          -10.00634205848348       -2.24138697017835        1.41132834346944
