42
 energy: -62.486133505811 gnorm: 0.000480801808 xtb: 6.7.1 (edcfbbe)
N           -2.42791419939306       -1.62548813614995        1.84027245172689
H           -1.52035226481159       -2.07384070756527        1.88008002682800
H           -3.12854394192828       -2.34614850010992        1.99776159502612
H           -3.39904227811051       -0.08025427581212        2.49221801293015
C           -2.64792593540775       -1.01621885905971        0.52875910345107
H           -1.78353146200302       -0.36844190909360        0.32462204446061
C           -2.81562712005064       -2.00807571032046       -0.62006251771686
C           -3.84900043434825       -0.09597338585104        0.67176408069831
H           -3.55010138770821       -2.76547439252857       -0.35749207109487
H           -3.16141039386472       -1.47958968921333       -1.50148368700915
H           -1.86916967435111       -2.49869908031476       -0.83779702636647
O           -4.04533511127132        0.37684158856200        1.91724675695040
N           -4.56458998884195        0.17752370663524       -0.32501875283344
H           -7.97166054975107        1.83236444509206        0.34211051912039
C           -5.69306539181524        1.07141254644072       -0.19087972107527
H           -5.56321220991771        1.76789801499865        0.65198396501790
C           -5.77396153666930        1.83438398514974       -1.52846040830084
C           -6.92520004413118        0.23830782339113        0.08189479375490
H           -4.79075484593568        2.28366796314746       -1.68494853753828
H           -5.91348055132296        1.08439268015548       -2.30887290548049
C           -6.84028134067303        2.92522675427382       -1.67347471740011
O           -8.09081746285302        0.87495645042166        0.32982282938786
H           -7.83853416034104        2.47977217807655       -1.59580106686194
C           -6.68731068746837        4.02822045627969       -0.62551374078598
C           -6.72963956333132        3.53611875873003       -3.07127113110964
H           -5.70587518711321        4.48959831698690       -0.71272766574703
H           -7.44002065961962        4.79903475339982       -0.77778942045972
H           -6.79101791094720        3.65637049270449        0.39264294799601
H           -6.85421639333825        2.77234247093058       -3.83487099841146
H           -7.49524089072847        4.29472995337887       -3.21685676299449
H           -5.75570274478179        4.00100004262809       -3.20683700085190
N           -6.80083137867727       -1.00965704899355        0.15455082739454
H           -5.66735458312810       -2.31652796521910        0.33021780247400
C           -7.86130433401717       -1.91843058766461        0.50189743128016
H           -8.48037397601553       -1.53842443043298        1.32515152699958
C           -8.76343131987840       -2.23199297647006       -0.69537089404309
C           -7.16745073192314       -3.21464869353938        0.95715259304208
H           -8.15907755090206       -2.55968706391709       -1.53870511229107
H           -9.45788461511523       -3.02227275927706       -0.42438986410700
H           -9.31978726522277       -1.34296810064178       -0.98184037154846
O           -5.85672664622877       -3.20476996592258        0.73643583543701
O           -7.74943254173215       -4.13860482018502        1.45281411658997
