42
 energy: -62.486133513226 gnorm: 0.000479414763 xtb: 6.7.1 (edcfbbe)
N           -2.59319634945178       -0.37007415308470       -0.14841931731312
H           -2.55546886205168        0.47392542041123       -0.71064428486753
H           -2.10020801967651       -1.10150667702375       -0.64871845662895
H           -2.87530733123873        0.18037813923731        1.86465761711276
C           -3.97983442318678       -0.76872684078022        0.11609800201123
H           -4.58879567048544       -0.86123659370457       -0.79542404342517
C           -3.94934977810420       -2.10403920820231        0.85672191911928
C           -4.53459193934640        0.35041251013885        1.00304330703946
H           -3.40333860475448       -2.00921278990364        1.79258581383788
H           -4.95497508469923       -2.44226421868816        1.07201469864268
H           -3.44975056812726       -2.85365282528214        0.24466788841857
O           -3.72176952740087        0.63248173436427        2.02958371490220
N           -5.50689015718115        1.13044233089415        0.83563609437927
H           -8.28143188122406        0.59483536617400       -1.77884508415805
C           -6.57622565513769        1.08787868041685       -0.10947728539649
H           -7.40156638574501        1.64776094915943        0.36132116468221
C           -6.13621548423861        1.85924048604366       -1.38457999006020
C           -7.17219234838392       -0.26495338943419       -0.45227309839443
H           -5.08078131343999        1.64184723422937       -1.56370004743854
H           -6.68569247361560        1.51196748762577       -2.26460673505670
C           -6.31967104049497        3.37693242749649       -1.26600505896408
O           -8.09163696570075       -0.29140830213007       -1.44531086055363
H           -7.34812501440208        3.57647381662935       -0.94124179710160
C           -5.36127654649515        3.97030351437005       -0.23833376055805
C           -6.11115124484231        4.03468179989578       -2.62980343214072
H           -4.33517496051664        3.88771818144185       -0.59083067540723
H           -5.58400799359836        5.02212619603761       -0.07649229692550
H           -5.43895343114873        3.43941861099154        0.70610718549039
H           -6.82645983914128        3.66258031347573       -3.36123646003488
H           -6.23546849593182        5.11159631615962       -2.55019611752744
H           -5.10737418722004        3.83421372798110       -2.99868056921604
N           -6.94088730499069       -1.27559926065289        0.26200162954577
H           -6.82316071206203       -1.75244842305855        2.06395496417303
C           -7.64696086141544       -2.51916791803332        0.04208416471521
H           -8.70057302221757       -2.33307575389415       -0.21414311749389
C           -7.02669850942535       -3.36095978805797       -1.07485917364517
C           -7.63454676222838       -3.30200586028040        1.36335916626331
H           -5.96459513610775       -3.50608087031767       -0.89345586119152
H           -7.51700758399700       -4.33001440913119       -1.09641062607113
H           -7.16113510220079       -2.86541836510732       -2.03313479670539
O           -7.12363827239521       -2.62906645151807        2.39054465038464
O           -8.06010613033080       -4.41831910179684        1.46139059356856
