42
 energy: -62.486133511245 gnorm: 0.000480329957 xtb: 6.7.1 (edcfbbe)
N           -1.81096832626147       -1.85227947856403        1.10874828743613
H           -0.82519209090385       -2.08114289394703        1.13010107694072
H           -2.32300915409460       -2.71678465115557        0.95693235832984
H           -3.15548008230136       -0.87872210280565        2.09896367524049
C           -2.10667385185113       -0.90448397405413        0.03704943126172
H           -1.37090427054625       -0.09282883128641        0.10697110156191
C           -2.06725666212502       -1.49772254656620       -1.37069515458406
C           -3.46517644517963       -0.29192069931648        0.34554872570941
H           -2.79706465234444       -2.30050263667394       -1.46067983577401
H           -2.30706328442312       -0.72648769825275       -2.09532776172140
H           -1.07753674444356       -1.89523032447364       -1.58641979541778
O           -3.84872615390177       -0.37523951665238        1.62629115814412
N           -4.11932639627941        0.26809021599758       -0.57350993486914
H           -5.35211302867047       -0.66911764396404       -2.09627404657766
C           -5.43149512212085        0.82900900775203       -0.29914515337334
H           -5.54058422144261        1.12336472592944        0.74936176985403
C           -5.65228782983229        2.03012683743857       -1.22862845770142
C           -6.42836833368200       -0.26493972474489       -0.59710820822296
H           -4.89632638569224        2.78146949020317       -0.99280764543470
H           -5.47919729759956        1.70415018442577       -2.25758658820948
C           -7.04910198651593        2.65072400844245       -1.12209208055429
O           -6.19212676896173       -0.97304271609607       -1.71737838157501
H           -7.79464382904327        1.86794044009622       -1.29890961628820
C           -7.29841880962831        3.25138240336521        0.25884380290657
C           -7.21010441965659        3.72601279862245       -2.19577645293933
H           -6.54553267567943        4.00351778854481        0.48614484598831
H           -8.27657527608721        3.72502681981042        0.28897558851217
H           -7.27208386037129        2.48611891514044        1.02909844449831
H           -7.06034449196595        3.30898367590367       -3.18912266637220
H           -8.20707119047535        4.15733440244222       -2.15368026587039
H           -6.48500774676233        4.52305403859638       -2.04468390236719
N           -7.38921445371544       -0.47890986594121        0.18673579517347
H           -8.49743252322559        0.12438911393603        1.48410038645092
C           -8.35944583422067       -1.52151497496877       -0.06646706006384
H           -8.65806029619049       -1.55485197810866       -1.12212608086500
C           -7.82455106315741       -2.89884960144126        0.33936685918126
C           -9.59812505525933       -1.20677701943168        0.78620307727605
H           -7.46109486059668       -2.86634615897840        1.36461724262010
H           -8.62501330489467       -3.62971781943262        0.26663979272840
H           -7.00870785771408       -3.18827636019576       -0.31849870329834
O           -9.41451363914732       -0.20499038614804        1.63656524108077
O          -10.62427098134090       -1.82204107821622        0.69859417021623
