42
 energy: -62.486143125493 gnorm: 0.000732964883 xtb: 6.7.1 (edcfbbe)
N           -0.75898304439217       -0.16966909436173        0.16523011771070
H            0.13811699231233       -0.39788817910527       -0.24584686150138
H           -0.80403641103213       -0.62350529368752        1.07361047410062
H           -1.89691111762303        1.37828907202545        0.44393012798872
C           -1.85791205157509       -0.63716575128301       -0.67820339081881
H           -1.64584929115214       -0.29390598005254       -1.70032969892852
C           -2.05509157016719       -2.15234904475677       -0.68726641214199
C           -3.10592967372563        0.10587394013335       -0.22032764920544
H           -2.36231345640300       -2.49831636776132        0.29722632784762
H           -2.82235502861451       -2.42729846090624       -1.40350943833087
H           -1.12609760587806       -2.64761826419779       -0.96363064018224
O           -2.86763493493468        1.29393508448043        0.35207677859684
N           -4.23720514660359       -0.41927178732158       -0.38135913162330
H           -5.18647705550991       -1.69705646604816       -1.24362385167486
C           -5.48874975765175        0.22918128065866       -0.04831363759411
H           -5.55066695327007        0.42124557420619        1.02731233737782
C           -5.63836360033529        1.56182060932415       -0.81358500274617
C           -6.57477482397563       -0.75089713687502       -0.45850424734013
H           -4.81504973633102        2.20775654123117       -0.50476870635693
H           -5.51682885830635        1.34666290240965       -1.87924155939334
C           -6.95617774033547        2.31055087325054       -0.60308016751946
O           -6.16405148785108       -1.78470139084351       -1.19873896881975
H           -7.77891249267894        1.67778390315817       -0.94517002866142
C           -7.18265615044656        2.66242909991896        0.86452523795320
C           -6.94634473614570        3.58318601916295       -1.44954765610576
H           -6.35566940140192        3.26035910565034        1.24284188586938
H           -8.09967059240071        3.23614180088775        0.97342916683639
H           -7.27033223354494        1.76548138910177        1.47129671422842
H           -6.79843837625159        3.34789310762327       -2.50120559217319
H           -7.89195949721701        4.10966744074111       -1.34776222580957
H           -6.14652956948770        4.24866186661363       -1.13025973342129
N           -7.77188353037566       -0.54790741609254       -0.11404756789093
H           -9.07719926168953        0.52747082970931        0.57355740091595
C           -8.82911195428030       -1.45140628904974       -0.51564204009884
H           -8.75733068433141       -1.71420120047618       -1.57886359334099
C           -8.82145877910802       -2.74260297293982        0.31067969442668
C          -10.16308216379386       -0.73208489974044       -0.27303184481312
H           -8.84933045277903       -2.50402835136768        1.37218306149285
H           -9.69436015456949       -3.33682137502794        0.05584124957388
H           -7.92025129375371       -3.31192689993578        0.09780224047454
O          -10.04136464601075        0.39549153989904        0.41737562269425
O          -11.21696293624746       -1.16128522875056       -0.65412378676265
