42
 energy: -62.486133500992 gnorm: 0.000480788164 xtb: 6.7.1 (edcfbbe)
N           -1.61212860689211       -0.74030336234994        1.37949328245126
H           -0.71981192531325       -1.18969363857968        1.21143425632555
H           -2.02724814217973       -1.18632006658065        2.19332818719398
H           -2.41205179309910        1.02989192610418        1.47892603118965
C           -2.50010689589882       -0.90524594676325        0.22759185306288
H           -1.93204574743924       -0.59711442163269       -0.66071264557043
C           -3.03023377724401       -2.32074035024923        0.02025425391620
C           -3.62794931441371        0.10022068841982        0.39122361402730
H           -3.58073728393857       -2.65139012641906        0.89719065998501
H           -3.70405367870530       -2.33151972343976       -0.82859984453608
H           -2.20810133366935       -3.00966472927423       -0.16310627230418
O           -3.30329953846144        1.19420427453839        1.11168845498778
N           -4.74603607759289       -0.11784511711284       -0.13641516466038
H           -8.06112040325750        1.72835766522083        0.40207094944130
C           -5.81353795749936        0.84882748755982       -0.04058645500267
H           -5.68861969319120        1.51481873395196        0.82791330271176
C           -5.77110751167554        1.67441031274553       -1.34663898645027
C           -7.10329811459709        0.07979572545907        0.11858496498627
H           -4.75779019812622        2.07679605757050       -1.42282311798456
H           -5.90790657902580        0.97071943878470       -2.17041564501879
C           -6.76190707079724        2.83373421180741       -1.49898243140023
O           -8.23997709087474        0.78212425934159        0.34175820364475
H           -7.78783118639141        2.44914455924253       -1.49046328938575
C           -6.59474854923714        3.88329517409530       -0.39998926574875
C           -6.53918946953723        3.48863085841409       -2.86323933126107
H           -5.57940132022974        4.27386365429478       -0.41142683975173
H           -7.28081811630173        4.71180051330247       -0.56323629250270
H           -6.78505756946924        3.48257176590905        0.59431247897494
H           -6.67399210512550        2.76514127559969       -3.66351435831933
H           -7.24511534509038        4.30205704834981       -3.01413845101741
H           -5.53132086231447        3.89217067524957       -2.93115219075135
N           -7.06347017273543       -1.17424479173016        0.13321227323827
H           -6.02897364389041       -2.60906434187793        0.21875056058844
C           -8.20639028920393       -2.02159878670011        0.34670693986368
H           -8.82969865406177       -1.67472932207120        1.18136307573698
C           -9.07873468374377       -2.13749016321636       -0.90752424154910
C           -7.64479777620246       -3.41412686443101        0.68725011710638
H           -8.46595017470377       -2.43028970154952       -1.75761704141154
H           -9.84478591968607       -2.89016423749798       -0.74349241600110
H           -9.54979264285222       -1.18134765772527       -1.12138633037575
O           -6.33474305757681       -3.50791250696499        0.50887752363952
O           -8.33231098711029       -4.32379610691467        1.06246449001116
