42
 energy: -62.486133515033 gnorm: 0.000479823239 xtb: 6.7.1 (edcfbbe)
N           -1.03213420518969       -1.28561283979899        0.25080550391178
H           -0.08597349667126       -1.34323063338783       -0.10635788249405
H           -1.34789516326458       -2.23593158527447        0.42657102643964
H           -2.05505595104667       -0.32371610448630        1.56194502596685
C           -1.91837712727695       -0.64263823277272       -0.71944759481790
H           -1.40482755310443        0.25525711641739       -1.08593177664486
C           -2.31354163629158       -1.51661418275621       -1.90706224781140
C           -3.14345431341362       -0.15909738007741        0.03802994191106
H           -2.79603100732153       -2.42728669376383       -1.55807498264522
H           -3.01748692017241       -0.97637712707848       -2.53036894479028
H           -1.43661065850164       -1.78206216118287       -2.49389936269155
O           -2.97521891005635       -0.04602677086032        1.37796517024883
N           -4.20953433130361        0.08556396907206       -0.57755466354106
H           -5.15979275040217       -1.14246230611106        1.68656010110060
C           -5.36444872777820        0.63140977545390        0.11038049541187
H           -5.09877688007951        1.01564257194486        1.10713807082005
C           -5.94108336371206        1.74671406749296       -0.76400419370464
C           -6.30916836758046       -0.53605742193558        0.27494119548832
H           -5.15530555988212        2.48785892791106       -0.92319481466172
H           -6.18332421998752        1.30411481599847       -1.72970028071958
C           -7.17998158968515        2.43060111983255       -0.17767172354159
O           -5.98115036217329       -1.41197491667238        1.25268635469268
H           -7.88981067458415        1.65749534895757        0.13048845016749
C           -6.82955130036726        3.28891390769681        1.03634474231680
C           -7.83965244853661        3.29454248607379       -1.25101250558240
H           -6.10762040872024        4.05594590923228        0.76339381890865
H           -7.72075399482271        3.78032351746215        1.41987113090879
H           -6.40770578677282        2.68895723218914        1.83850289741784
H           -8.13771884050203        2.68966106161599       -2.10369256312426
H           -8.72499629126653        3.78513344510800       -0.85358634062027
H           -7.14988250962975        4.06160969178149       -1.59700873385335
N           -7.28445149760484       -0.69691927381308       -0.49981208635307
H           -8.14295684664952       -0.24219477005761       -2.01715672178433
C           -8.16529567793789       -1.83735699269735       -0.41363339967193
H           -7.61025030872888       -2.77528247842061       -0.28631319107504
C           -9.16636828011063       -1.69471214022119        0.73832425814590
C           -8.95056652348492       -1.89619836081364       -1.73380634467562
H           -9.70885946368164       -0.75581123739041        0.64564125011452
H           -9.87360765600991       -2.51833149467121        0.70317088401786
H           -8.64061637916557       -1.70908800477367        1.68977560744040
O           -8.79358150435339       -0.81623839800971       -2.48812494412162
O           -9.65277176761263       -2.82054927978417       -2.03618552280334
