42
 energy: -62.486131024476 gnorm: 0.000513685312 xtb: 6.7.1 (edcfbbe)
N           -1.57223319183052        0.17075503869810       -1.38570382478708
H           -0.56547396061250        0.04502566701158       -1.38888515595460
H           -1.80830529547488        0.83976604430691       -0.66076686596317
H           -4.21334900461677       -1.92635476549225       -2.32130125945527
C           -2.23752457331766       -1.08777702954279       -1.10352916417349
H           -2.14304667056503       -1.71560389298904       -2.00214003373530
C           -1.65862836082099       -1.85261711995305        0.09947184717750
C           -3.70139898490415       -0.79917980921123       -0.83787714229093
H           -1.75765863743945       -1.24372660862180        0.99492886606527
H           -2.18810219992533       -2.79075376672584        0.25036389214683
H           -0.60604801213623       -2.07199930633730       -0.06875171819633
O           -4.62138659830141       -1.42898585637982       -1.60134374971870
N           -3.97721444304429       -0.01141279411554        0.10182963697605
H           -5.32707343434498       -1.82472825537675        1.39851637142890
C           -5.32287730828982        0.38121368121464        0.46820467505674
H           -5.28315842084875        0.56306706322544        1.55210873916362
C           -5.65969975886126        1.69078817100535       -0.25698294952695
C           -6.33954052137067       -0.70692764034429        0.20905847864860
H           -4.78918232934073        2.34558554516898       -0.17867597743768
H           -5.80734630320725        1.45212300502979       -1.31080994206746
C           -6.89439423545859        2.41275220774561        0.29241926913738
O           -6.14966803752168       -1.86038732340334        0.89398449432146
H           -7.69346888140100        1.67884736512916        0.43029349452333
C           -6.60069164667870        3.08009159456722        1.63431049706614
C           -7.36461379405486        3.46028135246663       -0.71491672393527
H           -5.79804340011906        3.80689694404824        1.52848878288957
H           -7.48483996823865        3.59820678312665        1.99793752522945
H           -6.30726838474135        2.35210504631132        2.38613502183189
H           -7.62549308571677        2.99699980988536       -1.66309037763865
H           -8.24131762306858        3.98203898859674       -0.33877695060461
H           -6.58041983885874        4.19328652792528       -0.89316621242084
N           -7.28633135726545       -0.53500684948332       -0.59847379196565
H           -8.00921134487506        0.41961913880622       -1.93702259250760
C           -8.24673444274327       -1.57078984017970       -0.89468242860556
H           -7.75874012538762       -2.54097839342333       -1.05183538110295
C           -9.29325247046400       -1.71757383451753        0.21520118823309
C           -8.96198859438953       -1.15894419659751       -2.19082745636858
H           -9.75534819963539       -0.75374184374231        0.42147040422294
H          -10.05979924411520       -2.41698340697402       -0.10623415853484
H           -8.82257381295382       -2.08749607857188        1.12259761216298
O           -8.67350712582130        0.07611975923725       -2.58240455792897
O           -9.72078415131469       -1.88024214852443       -2.77722250516989
