42
 energy: -62.486133515792 gnorm: 0.000479239721 xtb: 6.7.1 (edcfbbe)
N           -1.00245916903267       -0.79924999512629       -0.03378932945266
H           -0.15410392858272       -0.97026414543322       -0.56035956614470
H           -1.11108791242049       -1.56726101084667        0.62318146827416
H           -1.91255860147228        0.59497142319059        0.94302789838598
C           -2.16484510815456       -0.74640864264469       -0.92201119459424
H           -1.90204659856070       -0.09301732813233       -1.76339165167182
C           -2.62671384146889       -2.09817253818872       -1.45884070561173
C           -3.28460957135793       -0.04983500524050       -0.16485568786606
H           -2.81259822583147       -2.78242779558341       -0.63358186692481
H           -3.55595285968011       -1.96284589659084       -2.00121476790451
H           -1.87357084333342       -2.52934036861512       -2.11518080722169
O           -2.87878281775385        0.72403109233216        0.86600043090326
N           -4.47268764600670       -0.21144360526691       -0.53209387101810
H           -7.43719168000469        0.51162254148508        1.64331669125523
C           -5.55572706075584        0.46806362479581        0.12540840425618
H           -5.32309190144801        0.67470756213553        1.18378372522714
C           -5.79847063514906        1.79653908411346       -0.62590184907195
C           -6.78426833045115       -0.40261101084870        0.04282096033751
H           -4.85658705819704        2.34978390075633       -0.61502016735325
H           -6.02026983741801        1.52940676391889       -1.66061524633985
C           -6.91065894757781        2.69524126053107       -0.07619646069201
O           -7.73915393748302       -0.16569461382161        1.02575301465343
H           -7.83960379443955        2.12101796713239        0.00751318964973
C           -6.54760615875409        3.27807711575615        1.28963619020235
C           -7.16647171638333        3.83251743376317       -1.06464053601193
H           -5.65822360125127        3.89871734741804        1.20421234914166
H           -7.36036862079894        3.89582437192033        1.66562202975605
H           -6.34234155824688        2.50537193334549        2.02837527974610
H           -7.48007346641053        3.43800407610656       -2.02773419755695
H           -7.94865409427517        4.49024892954221       -0.69278277719717
H           -6.26288429566544        4.42046663645310       -1.21017711484541
N           -6.89318285161333       -1.26497844110534       -0.84964337574781
H           -9.16802430541465       -0.34390228659418       -0.06082616027363
C           -7.97810692023899       -2.18406006577980       -1.06295174658093
H           -7.63418615462445       -2.85858244587321       -1.85557791805662
C           -8.35660475603405       -3.01408912388150        0.17229060079611
C           -9.24608159009093       -1.49741648351563       -1.59419619715098
H           -8.76000652244492       -2.38792648456165        0.96516963353328
H           -9.10013252497473       -3.75732614276431       -0.10436559084834
H           -7.47110289418439       -3.52144447433776        0.54816792206483
O           -9.71794722786625       -0.49503702585985       -0.85302234928803
O           -9.79715168267224       -1.85330419341022       -2.59637359099831
