42
 energy: -62.486133520953 gnorm: 0.000478931427 xtb: 6.7.1 (edcfbbe)
N           -1.21617249041338       -1.15425170323297        0.95756753837922
H           -0.23192888681009       -1.32431562583441        0.78976241721853
H           -1.63119527557413       -2.03088249347227        1.26148153089823
H           -2.37394335236896        0.14860028317293        1.84426976969182
C           -1.88171095982673       -0.68379086282184       -0.25551205329414
H           -1.27534620225879        0.13970589299578       -0.65655326515468
C           -2.06640155462741       -1.74362061152933       -1.34011740863802
C           -3.20755222228616       -0.07738357405447        0.17948063142087
H           -2.70359546449626       -2.54757877994100       -0.97766594239455
H           -2.53226973324464       -1.29785202220674       -2.21261577030245
H           -1.10247715865058       -2.15880074331786       -1.62804587283257
O           -3.22403822491068        0.39920464556309        1.43201961724984
N           -4.17078972645964       -0.03167081926645       -0.62918953147477
H           -5.23031113579982       -1.14047622544685       -1.82849766996777
C           -5.45120773712770        0.53151995269523       -0.25168139488593
H           -5.50893986064892        0.76732970817165        0.81526988490739
C           -5.68495838460266        1.80267072759000       -1.08874274096940
C           -6.48550328669765       -0.51838567331788       -0.59126094848377
H           -4.88549363493239        2.50748155981186       -0.84872102406747
H           -5.58402322260723        1.53314392419234       -2.14329156678952
C           -7.04215021538784        2.47524308539368       -0.86413317692827
O           -6.15139912416820       -1.35402113184633       -1.58468234200792
H           -7.83189930318733        1.73794976968404       -1.03705997673959
C           -7.18070973564259        3.01150735718281        0.55815464045577
C           -7.21411997456042        3.61270774970298       -1.87008741516085
H           -6.39583477756257        3.73544875239494        0.76846978907235
H           -8.14276694872587        3.50282469953669        0.67969272322221
H           -7.11740458269855        2.20900949782834        1.28736685860089
H           -7.15156927064612        3.24111325649941       -2.89039808034716
H           -8.18256498825702        4.08871699585250       -1.73931574053730
H           -6.44034000312814        4.36497140627850       -1.72997660561828
N           -7.57544195718782       -0.55021801492446        0.04035601331678
H           -8.82801245191772        0.35588684042471        0.99405433865445
C           -8.60625107355820       -1.51483184939411       -0.27509686766973
H           -8.70020115768259       -1.67717998229598       -1.35669207913345
C           -8.34079476284803       -2.86209676346861        0.40471381658855
C           -9.93366099957930       -0.95289055132760        0.25539119983694
H           -8.19087894181183       -2.71540865720233        1.47249943109258
H           -9.19493798888105       -3.51549145025559        0.25067703095095
H           -7.45137676203168       -3.32191616856110       -0.01910774954269
O           -9.79088252052939        0.14295053666427        0.99076925271032
O          -10.99513520558819       -1.46694876391828        0.03538373905446
