42
 energy: -62.486132526806 gnorm: 0.000652633751 xtb: 6.7.1 (edcfbbe)
N           -1.94348877359742       -1.45405957237918       -0.81768732948300
H           -1.34421122770162       -2.26440743074589       -0.71901441705640
H           -1.35874883987073       -0.62856222524624       -0.71859365910600
H           -3.33606976417626       -0.80916096594439       -1.97184983529890
C           -2.98620308233229       -1.44705967843059        0.20923442961040
H           -3.41917185086480       -2.45500724483737        0.24119233705985
C           -2.50831020805619       -1.06134305884911        1.60604067164779
C           -4.09195761031658       -0.52270082337575       -0.27744408120556
H           -2.04646324996920       -0.07593021589867        1.58536403778549
H           -3.35974978458040       -1.02570289911687        2.27638386284331
H           -1.78434304776870       -1.78511377681516        1.97488792803509
O           -4.11767507649665       -0.34036711300423       -1.61328261625359
N           -4.90915280192394       -0.04849414698577        0.55008129790566
H           -7.06037518175310        0.94999214349352       -2.11423504208946
C           -6.01245433457763        0.80356776799941        0.14276964976495
H           -6.44257367257500        1.15399708074177        1.09024234139659
C           -5.59130838344440        2.01916574149201       -0.69141464612330
C           -7.05773904885050       -0.09137749811731       -0.50301674185050
H           -4.68306140772207        2.42237594017627       -0.23684307494603
H           -5.31530428692498        1.70310411753052       -1.70179044056069
C           -6.65665505010783        3.12659795958241       -0.73926988151487
O           -7.50272600960963        0.17489266073901       -1.74505995809447
H           -7.65234239399948        2.67701087621286       -0.83551397328639
C           -6.63975728350392        3.95514519925578        0.54363688303249
C           -6.41471593203819        4.03365017827016       -1.94590366284523
H           -5.68505902280941        4.46592936147616        0.65120341286880
H           -7.42803120145371        4.70402167258895        0.52085671221578
H           -6.79334873062875        3.32718630423514        1.41751811133087
H           -6.49265002847218        3.48110383262365       -2.88088006398956
H           -7.14470295265056        4.83921299397261       -1.96778176277916
H           -5.42151263340535        4.47465687595078       -1.89196648646939
N           -7.44019749625872       -1.09292160492301        0.15751734521714
H           -7.46756628937722       -1.99536324036718        1.71299148321210
C           -8.38053898202810       -2.05801475515707       -0.35918824135673
H           -9.27031551873812       -1.57518399161303       -0.78284919190408
C           -7.75154460567633       -2.96013012198520       -1.42737948547183
C           -8.80887556882620       -2.93856442127876        0.82593992678255
H           -6.83819580890943       -3.40766866955205       -1.03971915876373
H           -8.45231103476033       -3.74815641829841       -1.68845178870139
H           -7.51286427564770       -2.37777840381938       -2.31358289622794
O           -8.09592080121446       -2.72824895577383        1.92413190525368
O           -9.68799803164368       -3.75231930769876        0.75166148169736
