42
 energy: -62.486132524900 gnorm: 0.000656095339 xtb: 6.7.1 (edcfbbe)
N           -1.68433917921056       -0.45801659874809        1.19235055878101
H           -0.79658094913793       -0.91797066851235        1.02923134156966
H           -1.99004888291576       -0.71325731269080        2.12771580856055
H           -2.53055213956178        1.27488666025841        0.99063196239195
C           -2.68281362799326       -0.89618232847958        0.21571211769642
H           -2.21834422155945       -0.81790150401519       -0.77652534005893
C           -3.20115881978107       -2.31723909657342        0.41824043039557
C           -3.81302292101320        0.12059851393904        0.24797322567635
H           -3.65654746456870       -2.41690262097161        1.40053138147439
H           -3.95547597797594       -2.53519779399814       -0.32902464990668
H           -2.38728558804183       -3.03407609888977        0.32996084571357
O           -3.45752846462211        1.34492285109680        0.68616813731336
N           -4.96467202351972       -0.21887533711287       -0.11807794487308
H           -8.28953341484175        1.41219908113577       -0.96004157234169
C           -6.05990046312207        0.72012560384675       -0.15327422776745
H           -6.11341327869451        1.27396517592139        0.79843194089097
C           -5.92168473795894        1.73595178295123       -1.30953193474646
C           -7.32410095779725       -0.10760786663449       -0.27850120091035
H           -4.86228797587723        1.82608886351796       -1.55390026583840
H           -6.41626469132670        1.33122188359526       -2.19719851784400
C           -6.46199305921977        3.13828621079758       -0.98217132331986
O           -8.45263659187487        0.49134914834062       -0.72023348128077
H           -7.37708079901029        3.05843141736578       -0.37917898718493
C           -5.43953531100058        3.92723457864686       -0.16699240773410
C           -6.80092872852434        3.88852114492931       -2.26958206914844
H           -4.55963591164283        4.13539427846956       -0.77135686533644
H           -5.86175367279397        4.87303683727790        0.16487158793397
H           -5.12105169958770        3.36351318631646        0.70562191948639
H           -7.57080905351237        3.37030779312565       -2.83881149673439
H           -7.16097544656496        4.88917625562675       -2.04199654601127
H           -5.91606075142486        3.97815620388600       -2.89568602299832
N           -7.27591361031491       -1.31187038640399        0.07037356203914
H           -6.27751696743234       -2.60501715225944        0.73567309155276
C           -8.38704280912052       -2.22618403037171        0.03441562657055
H           -9.26262370224013       -1.82501318621651        0.56082557769680
C           -8.79799651049333       -2.60161610921849       -1.39318450773818
C           -7.91161871114572       -3.49864583003408        0.76089552721821
H           -7.92834685117861       -2.94697346027748       -1.94851820539801
H           -9.53619752319382       -3.39780823956900       -1.35491383638942
H           -9.22238931440065       -1.73786639114796       -1.89832543593087
O           -6.61697026139259       -3.48602345223811        1.04378083350060
O           -8.64155824186321       -4.41514799383260        1.02255680389091
