42
 energy: -62.486133517454 gnorm: 0.000479251246 xtb: 6.7.1 (edcfbbe)
N           -0.94035716253866       -0.41156771855210       -1.10773780607406
H           -0.18443999768192       -1.04430608887729       -1.33838396672939
H           -0.57494816282346        0.27660576070767       -0.45512984946038
H           -2.26486280076147        0.61718067277774       -1.97441358223164
C           -2.06002063924838       -1.12748459789762       -0.49718062681940
H           -2.22679433128492       -2.03892167173837       -1.08556221133964
C           -1.85263362332398       -1.50581863981777        0.96678396095484
C           -3.30188253968334       -0.25411245558410       -0.67295438354402
H           -1.65164371062728       -0.61461989419922        1.55816368760155
H           -2.75443830844052       -1.97216681279875        1.34835903355110
H           -1.01672792281570       -2.19496080761462        1.06812916883424
O           -3.19176550809399        0.66166187202846       -1.65698959782956
N           -4.30150720020954       -0.48743474553306        0.04860731163448
H           -5.31555282224792       -1.06451135718502       -1.95650209571809
C           -5.56051629501289        0.21538443565769        0.06532071647358
H           -5.83261986265163        0.27875452834238        1.12371610017182
C           -5.58705288362154        1.62576107817279       -0.55397449318674
C           -6.60229227967537       -0.64845135673953       -0.61332284437998
H           -4.73759668111815        2.18410244587759       -0.15488694106274
H           -5.45057657466573        1.54655912985492       -1.63476657740249
C           -6.87857777745706        2.40056905863957       -0.27028040676803
O           -6.23994012216425       -1.26321741295758       -1.75482308360719
H           -7.73204903701280        1.77585842739819       -0.55157019913841
C           -7.01243204599463        2.76991898713661        1.20496835890505
C           -6.90448261840085        3.66779023695035       -1.12431935187781
H           -6.16525313800235        3.37443259060660        1.52343019485301
H           -7.92169679365803        3.34453566789582        1.36306531630697
H           -7.06293303201119        1.88503633250608        1.83333668763855
H           -6.85566004701175        3.42312552632267       -2.18293272867850
H           -7.82007229815172        4.22596493752547       -0.94547696050078
H           -6.05878951342864        4.30777879109711       -0.88033272839541
N           -7.76395818737566       -0.70119044517538       -0.13107406776337
H           -9.03813063819248        0.03932817605062        0.93690897642138
C           -8.82734215915870       -1.43788618747211       -0.77606576443254
H           -8.80171261378988       -1.32766803008139       -1.86783920177665
C           -8.76790614795850       -2.92919503624692       -0.42862960605271
C          -10.15436761649673       -0.86933907083453       -0.25116112495326
H           -8.75293337297400       -3.05833368991725        0.65159502231674
H           -9.64307736771716       -3.42739070513446       -0.83615931997733
H           -7.86887446386229       -3.37129468705106       -0.85069899331973
O          -10.00733996837396       -0.04315462722744        0.77772896047079
O          -11.22043299909510       -1.15934837507464       -0.71800991913904
