42
 energy: -62.486133502838 gnorm: 0.000480943442 xtb: 6.7.1 (edcfbbe)
N           -1.59611738401740       -1.08159731225038       -0.46477431064052
H           -0.99339519796845       -1.89524903642997       -0.44851356128991
H           -1.12620454464437       -0.34338099236964        0.05243331817686
H           -2.62739408737850       -0.07523474216409       -1.71078364139552
C           -2.88770755138027       -1.37537197837947        0.15748487602407
H           -3.23189929191019       -2.33721630930604       -0.24313004017423
C           -2.86061594287872       -1.44768710194055        1.68131873985965
C           -3.87925912591495       -0.32607551508063       -0.33694064640489
H           -2.49444143824521       -0.50971171118586        2.09410763193303
H           -3.86679525921637       -1.61421198788345        2.04942742871431
H           -2.21398468415746       -2.25763340933966        2.01277442385566
O           -3.51982973481945        0.26624030491590       -1.49399643844308
N           -4.92742081445303       -0.13915411257322        0.32370791416204
H           -7.43203366575000        1.02039705840280       -2.03288225008758
C           -6.00003496209691        0.77005208818039       -0.00831253501038
H           -6.32920682555615        1.15748250558518        0.96683316287489
C           -5.66377598939281        1.95768928760907       -0.91976949247328
C           -7.13495912896286       -0.11429019974466       -0.51043555691476
H           -4.68461098444256        2.33567454385051       -0.62029281481004
H           -5.55391451294158        1.62117990743648       -1.95501819324065
C           -6.68203509116048        3.10688120201740       -0.81714032560829
O           -7.78253402294102        0.20702143160988       -1.64714468645296
H           -7.69678959492367        2.70055268367002       -0.72244431057681
C           -6.40896922983001        3.96186727883016        0.41902335335373
C           -6.62191894908556        3.97701267892601       -2.07257921732730
H           -5.43269008047588        4.43597422861363        0.34214488992496
H           -7.16134132490094        4.74133680745733        0.51493778159638
H           -6.42754033305573        3.35936648829479        1.32392380956795
H           -6.87836057875998        3.40797251490440       -2.96478926929165
H           -7.31682424490992        4.80959346726100       -1.99178485258754
H           -5.61973837901176        4.37977439815965       -2.20244115321667
N           -7.40563751719157       -1.14086386222979        0.16329960875024
H           -7.07878268038267       -2.12489118569315        1.61397523839577
C           -8.42363402476773       -2.09398558044985       -0.20365810805516
H           -9.39291421319156       -1.60627081625006       -0.36868794881520
C           -8.05749934421273       -2.90003906310666       -1.45481017510161
C           -8.55510954798265       -3.06811784217669        0.98065550612381
H           -7.06902616075269       -3.33904002212376       -1.33386215264299
H           -8.78596474301601       -3.69415069866283       -1.59270204371510
H           -8.05500688660208       -2.25452537273840       -2.32905557817597
O           -7.62438547027821       -2.89661830271445        1.90862582230311
O           -9.40588772919254       -3.91277756715272        1.04021110121349
