42
 energy: -62.486133513688 gnorm: 0.000479810393 xtb: 6.7.1 (edcfbbe)
N           -1.10805417423761       -1.70176964042749        0.13625670697722
H           -0.75134700266028       -1.40926101114883        1.03996767682864
H           -0.31948916614606       -1.97973907526069       -0.43570986551058
H           -2.81043565119847       -2.43514923653425        0.50154823844734
C           -1.86262507686851       -0.62434357247709       -0.50348210228017
H           -1.45443947732853        0.37670691623919       -0.31175442016926
C           -1.92891437315452       -0.85476857070057       -2.01318766910916
C           -3.28356104746433       -0.67525151354315        0.04498915940425
H           -2.33938617086357       -1.83992200664343       -2.22474150790861
H           -2.56744108969296       -0.10203446328251       -2.46535200725873
H           -0.93557925708693       -0.78616450350026       -2.45185492396998
O           -3.61923823609943       -1.88125770072078        0.56306262309370
N           -3.98575871103403        0.35459167585501       -0.03171888730926
H           -5.15872839893058       -1.52985016433507        1.64528236469944
C           -5.36768380011422        0.59190050975692        0.30283929657828
H           -5.35287516022203        1.06432652142268        1.29883614897025
C           -5.87634104737926        1.62183608365970       -0.71814293871260
C           -6.31088312673505       -0.59441482119175        0.42809811819597
H           -5.05403919407154        2.31261804807760       -0.90887171338440
H           -6.09138253755358        1.09271233701876       -1.64649442748140
C           -7.11127074553435        2.41018461597715       -0.26818293107442
O           -6.09687264035175       -1.49480190678656        1.40463193006138
H           -7.82929553846529        1.71396335626893        0.17413216235962
C           -6.74645330455627        3.46666037189225        0.77284134324482
C           -7.76395567785109        3.07980780961190       -1.47636657784922
H           -6.04255065513508        4.18299210753764        0.35422310370853
H           -7.63542420267923        4.00649219697528        1.09094191965216
H           -6.29418417255240        3.01761264681138        1.65370838062980
H           -8.09268992964013        2.34011003565721       -2.20213197004842
H           -8.62959465785356        3.66089024634796       -1.16722502555606
H           -7.05862154581157        3.75014513048801       -1.96307459455293
N           -7.32965015045589       -0.63562348898687       -0.31360195427292
H           -8.20627951834189       -0.07309892077831       -1.78087792393687
C           -8.31134923738707       -1.68871507387747       -0.21383733295254
H           -7.84922088075908       -2.67461027544063       -0.07701906726243
C           -9.28828655977767       -1.43687863492582        0.94080028941752
C           -9.10951519536864       -1.67941306283811       -1.52608768423701
H           -9.73448850126270       -0.44895338107118        0.84205795384187
H          -10.07465962597676       -2.18593005567699        0.91629529371401
H           -8.76061774702807       -1.49559227649582        1.88945033052108
O           -8.89504202525983       -0.59417098957817       -2.26050757481648
O           -9.86796605057457       -2.55386193338493       -1.84080496761808
