42
 energy: -62.486133511328 gnorm: 0.000480492667 xtb: 6.7.1 (edcfbbe)
N           -1.11622095377747       -1.43671177339971       -0.05429867685678
H           -0.72360545924654       -2.33538529069477       -0.30975466553908
H           -1.01037324319135       -1.33185796075564        0.95114918124385
H           -1.08698088629939        0.43389424108091       -0.53387027995186
C           -2.53041585452376       -1.36013436056554       -0.41147725704554
H           -2.62021986390759       -1.69585000918895       -1.45331792239296
C           -3.45716565196727       -2.19456634836811        0.47130681368791
C           -2.93937319360001        0.12704839701551       -0.38376751537340
H           -3.36200433058359       -1.88487960892856        1.51062695376220
H           -4.49006761864060       -2.05262939989054        0.16902820160974
H           -3.21106442377224       -3.25198560912588        0.39409897916190
O           -1.89830800806020        0.97935660108423       -0.52371811261969
N           -4.09806794232638        0.51636062937327       -0.26641590132997
H           -5.31788667492752       -0.12625523116458       -2.26499705440781
C           -5.41590160755610        0.95420068159048       -0.14674003764748
H           -5.61911514305143        1.09492104884485        0.91927284487124
C           -5.66391672667099        2.28073098762514       -0.89916452977965
C           -6.34546095650912       -0.13337708182759       -0.66365190290774
H           -5.00016798505207        3.03354115525141       -0.47151328983543
H           -5.37290021672738        2.14927706013143       -1.94556394216196
C           -7.11592086552706        2.76610440714620       -0.83986504624819
O           -6.08555328886921       -0.59115253156251       -1.90523231355761
H           -7.76692784904316        1.97847184917416       -1.23626365932561
C           -7.55091227909935        3.07600715979944        0.58999068832753
C           -7.27128862066865        4.00839151517572       -1.71600533667002
H           -6.87654934485357        3.79979005488023        1.04278390642432
H           -8.55430013491328        3.49462798514795        0.59191149092303
H           -7.56250105159439        2.17675550314689        1.19946254628550
H           -6.99083867330464        3.79593793849579       -2.74537312815572
H           -8.30254917005635        4.35241324736195       -1.70794285184692
H           -6.63818381153602        4.81231379978703       -1.34669663959497
N           -7.26192610311900       -0.58718019564965        0.07034291110299
H           -8.40070372694246       -0.34391191801106        1.46657506041450
C           -8.15161622649672       -1.63632202620273       -0.38106772931060
H           -8.46018898456897       -1.48905492851302       -1.42384910957757
C           -7.50682379183624       -3.02022442451589       -0.24930618834936
C           -9.40101510083694       -1.59365963912337        0.51192631209237
H           -7.13436215132866       -3.16179471791400        0.76349869950939
H           -8.25066886288115       -3.78204299358119       -0.46479306093770
H           -6.68108771706551       -3.11466500502297       -0.95044890196531
O           -9.28543137874006       -0.76965513398513        1.54651391526357
O          -10.37741574287855       -2.25654534700639        0.29987502848598
