42
 energy: -62.486133510782 gnorm: 0.000480226088 xtb: 6.7.1 (edcfbbe)
N           -1.30779923095317        0.01126695597209        0.43969943857396
H           -0.46408224892662       -0.43220115383882        0.78775037349066
H           -1.92461738434741        0.17907009491086        1.22774135480868
H           -2.80145236423248        0.02387574603398       -2.65452835701630
C           -1.97938510371492       -0.86261536938424       -0.50685265766711
H           -1.37012360788253       -0.87783386685535       -1.42331758589947
C           -2.17232439383768       -2.30512302657306       -0.01149316473209
C           -3.33702065514848       -0.26307149995293       -0.80559595809671
H           -2.79249578662300       -2.29797005117735        0.88122635437499
H           -2.66145673648216       -2.91103029746269       -0.77061322048927
H           -1.20782663867370       -2.75147300695256        0.22186310462095
O           -3.60095127116892        0.05827286595550       -2.11532589280164
N           -4.14477125203394       -0.13757766610204        0.14022235681727
H           -5.32991797906015       -0.69420295189955       -2.05419493293395
C           -5.46413490213810        0.44581792815395        0.09865397619525
H           -5.75018584691740        0.56802535885304        1.14736425772829
C           -5.51207896102637        1.81388626884979       -0.60884749581001
C           -6.47119809348484       -0.49092072036213       -0.53211039588700
H           -4.70652650913206        2.42754655791311       -0.19820014151946
H           -5.31246501965283        1.67459726851219       -1.67396646805318
C           -6.84846771789041        2.54639127713419       -0.44671721721351
O           -6.16745760479930       -1.04844407094780       -1.71493944722378
H           -7.65743955491396        1.87194528046034       -0.74616560950870
C           -7.09042641364661        2.98269567336003        0.99581935038966
C           -6.86819747148832        3.76594448790288       -1.36775377348168
H           -6.28093601482429        3.62409753039415        1.33854013077881
H           -8.02170697243578        3.53935338683186        1.06421609194695
H           -7.16268604201553        2.12740625832159        1.66153678106458
H           -6.73759265517725        3.47135455740974       -2.40677523252265
H           -7.81593372792050        4.29100420108163       -1.27967616549863
H           -6.06848001594310        4.45448234167385       -1.10206183559501
N           -7.57517658679816       -0.65981278252664        0.05297308485446
H           -8.83613090840633       -0.01697226339408        1.19806423485369
C           -8.61353209212596       -1.48899540659933       -0.51551163486783
H           -8.67536826082383       -1.38385609936185       -1.60661209481036
C           -8.39299405040602       -2.96635061211820       -0.17308387880548
C           -9.94590838270733       -1.03927265002907        0.10141862052413
H           -8.28449622932138       -3.08482659325408        0.90303620413109
H           -9.24730138973122       -3.54513009325062       -0.51242049424757
H           -7.49179625624627       -3.32838184225605       -0.66185324448770
O           -9.80255911594849       -0.18754019234084        1.11004953115737
O          -11.01078981095161       -1.43545750298288       -0.28262327808061
