42
 energy: -62.486133503523 gnorm: 0.000481103308 xtb: 6.7.1 (edcfbbe)
N           -1.10861301966213       -0.59042158401982       -1.09663013670208
H           -0.46273332783588       -1.27963996639780       -1.46178502658531
H           -0.67582802380370       -0.16517827117365       -0.28134638566670
H           -2.22303008368203        0.84639759865376       -1.72217743973873
C           -2.37781968992023       -1.20929734256296       -0.71974211721807
H           -2.68894156592336       -1.84592084835902       -1.55831513936972
C           -2.32251839696915       -2.05068193838466        0.55315346185593
C           -3.41624501606964       -0.09231070915037       -0.62223725441485
H           -2.02894857871121       -1.43257006505403        1.39922915316607
H           -3.30299280041819       -2.46813061045965        0.75419354312636
H           -1.60502201039166       -2.86133754412096        0.44073578858146
O           -3.10970416178281        1.00058385198031       -1.33708533067363
N           -4.43571593327905       -0.29348236518115        0.08023836649491
H           -6.00304853621243       -1.17013506419837        1.78843997070075
C           -5.57142869534487        0.58762864356524        0.26885180728877
H           -5.50135699290765        0.95641774935120        1.30292758982157
C           -5.73988513019743        1.76730760993392       -0.68846575972422
C           -6.72931059833218       -0.38744781931385        0.18812226534249
H           -4.84026131441511        2.38186387414878       -0.65173234972443
H           -5.84246021372774        1.36362123698801       -1.69548183726576
C           -6.95847899893994        2.64329800802099       -0.37694016234647
O           -6.81725949791205       -1.23509458678404        1.27320593545938
H           -7.84955133828130        2.00929530357174       -0.36259352273308
C           -6.82911419306145        3.35085453067889        0.97093010149191
C           -7.12282405281013        3.67829206975350       -1.48841742568264
H           -5.90106898383492        3.91813461107903        1.01572464386120
H           -7.65781540378367        4.04116184456281        1.11097882178669
H           -6.84508253100470        2.64532754228742        1.79824387051825
H           -7.24904081240481        3.18677894787046       -2.44934305492221
H           -7.99551859016170        4.30062486364635       -1.30494875574147
H           -6.24641365290637        4.32130942545998       -1.54155063009211
N           -7.43323241846727       -0.46253654017211       -0.84008286203923
H           -8.63146006364205       -1.27736323263564        1.30370254913639
C           -8.48546213971475       -1.40885318965166       -1.10673624829785
H           -8.77058774534295       -1.23647986110701       -2.15106837786202
C           -8.07494230534748       -2.87800355953194       -0.93398781580011
C           -9.74256496817912       -1.14954001137336       -0.26219259902847
H           -7.85308647662852       -3.11099679192416        0.10511013095786
H           -8.88185957113682       -3.52109763718365       -1.27643134332199
H           -7.18661031917101       -3.07486004196525       -1.53004606015734
O           -9.56331528376074       -1.12860792876733        1.05784800404233
O          -10.82503783278797       -1.00093600590431       -0.75336324672155
