42
 energy: -62.486133527273 gnorm: 0.000478308357 xtb: 6.7.1 (edcfbbe)
N           -2.72280376096787       -1.90004663539698        1.83328626468705
H           -1.85974827147542       -2.42150543083887        1.93543024882459
H           -3.47898761483639       -2.57776250561029        1.75923049102036
H           -3.68942239861362       -0.36230361422940        2.57288434320438
C           -2.69079423816709       -1.07777644971176        0.62393890803539
H           -1.78812599701145       -0.45230237040796        0.68234192834234
C           -2.67783388796497       -1.85882755412060       -0.68804289992007
C           -3.87862911694013       -0.13784527164917        0.71895215298290
H           -3.47329024911980       -2.59992404816364       -0.69045645090578
H           -2.83830072136798       -1.17569302305171       -1.51501912430010
H           -1.72420920082753       -2.36719591645832       -0.81529085760909
O           -4.22713034503659        0.19566081336973        1.97651207206712
N           -4.47247392436181        0.26102186502709       -0.31562013345284
H           -7.78536932080138        1.91196142362475        0.66435713497221
C           -5.60974717572254        1.14593808380380       -0.18717994560177
H           -5.45160737325947        1.88387403725515        0.61395908973606
C           -5.76941098772818        1.83970306703656       -1.55270193758550
C           -6.82574771664616        0.31948432101981        0.16943569808073
H           -4.80875422216299        2.30407698564537       -1.78356571057638
H           -5.93324956689737        1.04957979901637       -2.28713218563080
C           -6.87667885580256        2.89086383042255       -1.67571928191643
O           -7.93479180135910        0.96099548116173        0.59661271888379
H           -7.84445537743420        2.43358386944608       -1.44116523172536
C           -6.64030014206988        4.08518224574214       -0.75085343798906
C           -6.94113426548043        3.37590709585994       -3.12432828908625
H           -5.69334057933997        4.56215819629118       -0.99455225651097
H           -7.43300442924451        4.82019410645793       -0.87373432742033
H           -6.60911580140541        3.79890624773314        0.29907176414716
H           -7.14360215837079        2.54693597125715       -3.79794896494203
H           -7.72948523424250        4.11550742494572       -3.24407210421073
H           -5.99662905721278        3.83070539581677       -3.41430548635754
N           -6.73723343196888       -0.93190486651500        0.10788428873264
H           -5.58440305958199       -2.22838319717562        0.17490991247674
C           -7.76118532721848       -1.85226203180271        0.52388958943136
H           -8.32615542311099       -1.48769624762785        1.39182307946005
C           -8.73723602059739       -2.16732498397599       -0.61322994493688
C           -7.02026259523693       -3.14259681644799        0.91988682106597
H           -8.18669900592474       -2.47609415949245       -1.49951418449762
H           -9.40047295541046       -2.97099347630910       -0.30549555985757
H           -9.32487140057785       -1.28386127099251       -0.85113908768482
O           -5.72961097811256       -3.11812034062915        0.59776361508270
O           -7.54988728552377       -4.07384576050676        1.45783221567343
