42
 energy: -62.486133514751 gnorm: 0.000479722351 xtb: 6.7.1 (edcfbbe)
N           -1.35341334970381       -1.48949262653510        0.93093816006631
H           -1.04754294557621       -0.83386466138683        1.64195559753740
H           -0.55093042377913       -2.03855035083686        0.64729755650652
H           -3.18692215712671       -1.78927343253252        1.45655212217332
C           -1.93543438321840       -0.78462566140352       -0.20893316524008
H           -1.41500959135092        0.14705306890057       -0.46994319825835
C           -1.95602362617881       -1.70142531543130       -1.43383312049226
C           -3.36892845655942       -0.44291358619112        0.16357043239503
H           -2.51076550371659       -2.61198013946333       -1.21534251750396
H           -2.42045860566193       -1.18679878032628       -2.27034856055194
H           -0.94143164489862       -1.97370800839256       -1.71700397581097
O           -3.90182850146781       -1.20317621878100        1.13199461737442
N           -3.96403567544580        0.49070641642408       -0.44075782770488
H           -4.87884132330763       -1.21370969087480       -1.44216832494027
C           -5.35457330969478        0.78006364784090       -0.15302823121837
H           -5.46763431172399        1.07050798434040        0.89752219800418
C           -5.74187043848339        1.95614625244880       -1.06991846602640
C           -6.25629150249259       -0.41401869219056       -0.39556379222517
H           -4.99956721779216        2.73795826016574       -0.89950690526766
H           -5.63040923170207        1.62156307028415       -2.10394585243857
C           -7.14515683216582        2.53298374281579       -0.87663883374403
O           -5.77762168900218       -1.42325559142272       -1.14833413197922
H           -7.87744845651259        1.74369475926062       -1.06676761083543
C           -7.35513295354654        3.06472081318668        0.53854591697507
C           -7.37269787679969        3.65190677721998       -1.89247057654670
H           -6.61616836564752        3.82944558358521        0.76991022437643
H           -8.34480748057103        3.50559988222172        0.62805039749089
H           -7.27292625152306        2.26811046623856        1.27271383419741
H           -7.24351466235183        3.28504686670162       -2.90803936172501
H           -8.38086739443463        4.04729830095087       -1.79818808730041
H           -6.66801496672284        4.46470719944322       -1.72872781729590
N           -7.45476844661754       -0.35932895611554       -0.00911726232867
H           -8.87783124219725        0.56916236239709        0.68309511420074
C           -8.38659151076583       -1.42678449338810       -0.29643175662629
H           -8.31188691430467       -1.76362321468289       -1.33863691322787
C           -8.17038333430295       -2.63079213307773        0.62744451431880
C           -9.79952802737569       -0.88008791893419       -0.05128127188277
H           -8.20417244319191       -2.31110536758916        1.66705583051479
H           -8.95358597714681       -3.36312766818649        0.45282804090160
H           -7.20103909769625       -3.07997831146419        0.42717291532186
O           -9.81656460647932        0.29446804281584        0.56741366001458
O          -10.79357052810126       -1.47154851979756       -0.37019843170563
