42
 energy: -62.486133516581 gnorm: 0.000479571241 xtb: 6.7.1 (edcfbbe)
N           -1.51036717607069       -0.54429562826118       -0.03323509804390
H           -0.81724202062045       -1.26610487216100        0.13309182045673
H           -2.03215905316382       -0.39087045525316        0.82338030564616
H           -3.93136185119814       -0.24179846017417       -2.83745046239826
C           -2.43920243546043       -0.96326651267434       -1.06465651384093
H           -1.98062658668778       -0.72972112029446       -2.03881196687898
C           -2.78722465290376       -2.46348082687274       -1.02669223981433
C           -3.74197907550300       -0.20453503224695       -0.92437560714512
H           -3.21386281046860       -2.70878466975980       -0.05702973235515
H           -3.51586644509519       -2.71284142853847       -1.79451863192064
H           -1.89103089532152       -3.06031115192679       -1.18598299999314
O           -4.38223953936842        0.11913823972230       -2.06385840503816
N           -4.14337492415611        0.05562306488893        0.23911832146233
H           -7.53870350695999        0.47601420964391        1.69120932634765
C           -5.42484965694785        0.64296373514571        0.53206315558162
H           -5.41288761565265        0.80865143069062        1.61934553210641
C           -5.65022783555840        1.98776182582993       -0.19266198502829
C           -6.54736664372929       -0.31583791883658        0.20896319022775
H           -4.73128225238121        2.56766983586365       -0.07839736414946
H           -5.78021615683203        1.77064603929190       -1.25313297170115
C           -6.83534222239439        2.82563535030352        0.29924446358167
O           -7.67510923566666       -0.18691496744260        1.00328629155261
H           -7.75307861391684        2.22842533086449        0.25141306425255
C           -6.63406172887765        3.33102737388453        1.72799628922392
C           -7.01898003545356        4.01748737103745       -0.64023293502977
H           -5.73669915126392        3.94323170752399        1.78313274702992
H           -7.48179525280988        3.94007371601134        2.03438003682768
H           -6.52917236168522        2.51929138539298        2.44559308640925
H           -7.21570764306361        3.67812848851424       -1.65413654858667
H           -7.85535878866098        4.63276598842098       -0.31653249048536
H           -6.12246607918253        4.63345025400173       -0.65089657767297
N           -6.43702492267103       -1.13431811293325       -0.72644023921481
H           -8.87952827944006       -0.38107440789987       -0.34856861055207
C           -7.40553530442436       -2.10099359075933       -1.16946605337144
H           -6.87925165457331       -2.72567456260576       -1.90099526674431
C           -7.97019849383342       -2.99807677657477       -0.05990733548431
C           -8.57348655521558       -1.44239337203632       -1.92020303160654
H           -8.54469911854583       -2.42507960373466        0.66435662422473
H           -8.61269470049417       -3.75629214374745       -0.50069466811447
H           -7.14967810907571       -3.48795647632758        0.45963667781067
O           -9.24726738519179       -0.51417009576261       -1.24257131428699
O           -8.87698450881110       -1.75521904177853       -3.03582671337159
