42
 energy: -62.486133519298 gnorm: 0.000478500777 xtb: 6.7.1 (edcfbbe)
N           -1.10269640525289       -1.60856380384801        0.54580597845644
H           -1.01892343585302       -1.44308709467298        1.54325416613425
H           -0.17018947104948       -1.73220468476515        0.17008378361803
H           -2.74642881118921       -2.49486185594781        0.39351911667554
C           -1.78730336819697       -0.49579718648950       -0.11136499112766
H           -1.53442536559920        0.48800679862032        0.30486430501207
C           -1.47379086584065       -0.49896960800238       -1.60758558731222
C           -3.28561558656801       -0.71797185481442        0.06652861521636
H           -1.71291848236994       -1.46835376892781       -2.04020544603684
H           -2.06434184255739        0.26598613834113       -2.10255016049215
H           -0.41883592033338       -0.29219021164310       -1.77456513291559
O           -3.60327256182640       -2.02371743202304        0.28953499533016
N           -4.04610586268102        0.26247193047055       -0.03990460665080
H           -5.15874820666204       -2.01465682755112       -0.48175637595765
C           -5.46309530678694        0.46973224755852        0.05031634846293
H           -5.62904988586807        0.96060162469103        1.01541971299043
C           -5.73892916421956        1.50264489682993       -1.07720146804963
C           -6.46679918107693       -0.66707042582135       -0.06770430094440
H           -4.92335882345955        2.22589725519160       -1.02265640443960
H           -5.65224800265699        0.97845099148097       -2.03234316883672
C           -7.07266019098765        2.24902440813526       -1.04021236561088
O           -6.11695957969936       -1.86584474649090       -0.54913833181324
H           -7.88491780389087        1.52446280860644       -1.13217861503525
C           -7.25393634821552        3.03509420446354        0.25490603208071
C           -7.14438175643640        3.19689188695142       -2.23746409896312
H           -6.44210380078713        3.74857036972088        0.38187584981605
H           -8.19249755046885        3.58286575289937        0.22998339330533
H           -7.27273766900034        2.37432668146021        1.11721022336396
H           -7.03403074829594        2.65039658234072       -3.17120845533609
H           -8.10285720098119        3.70927454084897       -2.25400328363535
H           -6.35580654285099        3.94467649053769       -2.18145771203048
N           -7.67145102061286       -0.37564961369401        0.18855071576978
H           -8.97262472490421        0.81614989033683        0.67199371682389
C           -8.73111900589367       -1.34669949383243        0.02428600754850
H           -8.67405687224160       -1.84993943392001       -0.94912336525589
C           -8.71722770104956       -2.40948550840712        1.13021973912649
C          -10.06330134310660       -0.59026852998079        0.11426959291598
H           -8.72900970206017       -1.92845843346927        2.10659183286861
H           -9.59690469692847       -3.03939725915202        1.03274685381154
H           -7.82311653893436       -3.02172802336670        1.04612804826650
O           -9.93839528565482        0.65433863568722        0.56010271501213
O          -11.11901862745783       -1.08697397273664       -0.16663310744360
