42
 energy: -62.486133506981 gnorm: 0.000480604413 xtb: 6.7.1 (edcfbbe)
N           -0.96386373346808       -0.68121381423184        0.13169473422098
H           -0.11552607208858       -0.96033270731891       -0.34605299003989
H           -1.06449095481681       -1.28087269875379        0.94658020325070
H           -1.87091385186378        0.91169290101336        0.75129678767099
C           -2.12841486075469       -0.83464143792756       -0.74107986026600
H           -1.87213266726778       -0.38318411516753       -1.70838943010418
C           -2.58053739742888       -2.27597229397362       -0.96241070654453
C           -3.24772654479819        0.01110762607642       -0.15358342070676
H           -2.79162713827505       -2.75439681232064       -0.00759638409197
H           -3.49093761679484       -2.27644769986511       -1.55218545745903
H           -1.80961914254571       -2.84332147675350       -1.47994139709582
O           -2.83978651890092        1.00688822417190        0.65975444232952
N           -4.44079298859855       -0.24150145581340       -0.45255531831777
H           -6.21684942025220       -0.64813990485682        2.01780964392277
C           -5.52502949776727        0.58051153330101        0.04487411534495
H           -5.28176981469174        1.00625255338946        1.03186548857330
C           -5.76703356424906        1.71823963015877       -0.95745683568716
C           -6.70499869863450       -0.35332246770328        0.17104101861107
H           -4.88915729839983        2.36728388313145       -0.92341024402754
H           -5.82579901358057        1.26609721492634       -1.94767803181278
C           -7.02862986899359        2.55202974316631       -0.71537576015401
O           -6.88503716414065       -0.93471833610444        1.38316989367078
H           -7.89741537504544        1.93044020541280       -0.95630293535753
C           -7.14729304708201        3.03172187130099        0.72944965734918
C           -7.02598811494204        3.74747872881900       -1.66716209764184
H           -6.23785419412299        3.54488715786790        1.03538875286045
H           -7.97948541607584        3.72548306467186        0.82652419482506
H           -7.32666686249625        2.20256786445397        1.40974293959219
H           -6.92960398549930        3.41449866635910       -2.69753186500357
H           -7.95092356507743        4.31172601576288       -1.57327356519876
H           -6.19497986459618        4.41188686297045       -1.44033429543050
N           -7.42920572808940       -0.60807257012607       -0.82578209987612
H           -9.14724246252094        0.56440927009537        0.01840943046281
C           -8.49397628974441       -1.58795188215530       -0.74338353493509
H           -9.06073067974297       -1.48661613389640       -1.68194766666433
C           -7.96723147755087       -3.01692160672636       -0.63098609116469
C           -9.48259937315114       -1.28781586157992        0.38979056429384
H           -7.39764422660459       -3.12819284807134        0.28719771070217
H           -8.80445549334162       -3.70825599904704       -0.60696122827054
H           -7.32686031188818       -3.24107853105743       -1.47981921461465
O           -9.70629832556547        0.02050073223634        0.59567667397374
O          -10.05906263911031       -2.12475890708937        1.01986926001077
