42
 energy: -62.486133516058 gnorm: 0.000479500161 xtb: 6.7.1 (edcfbbe)
N           -2.29339772649290       -1.64478371061387        1.53678625706713
H           -1.34100664398835       -1.98768858723704        1.55806046593146
H           -2.90725635959539       -2.43246899476082        1.72744195855166
H           -3.43180241402158       -0.28299475189137        2.24660647238901
C           -2.61631092079785       -1.06901924261241        0.23307153159192
H           -1.78968838880465       -0.40340268627132       -0.04620023668312
C           -2.83694493571378       -2.09392455478652       -0.87783677072441
C           -3.84782239156847       -0.19411408597216        0.42138906534369
H           -3.63710120836425       -2.77700430636811       -0.60002411449580
H           -3.12632138378353       -1.58081678642264       -1.78822002596519
H           -1.92858700488681       -2.66610488943109       -1.05633054361265
O           -4.10523347021469        0.15870280556592        1.69013712504127
N           -4.52982240267620        0.14239809064984       -0.58112232446541
H           -7.07556751077326        0.54682489697049       -2.43326005558156
C           -5.71176159605935        0.97147597729033       -0.41264127275831
H           -5.77818476380565        1.35675404849524        0.61181725002153
C           -5.65458596448307        2.12734814557338       -1.41300514399367
C           -6.86495055539005        0.00613978389058       -0.61222942423788
H           -4.74832469862974        2.69755501962691       -1.19778489872535
H           -5.52643946239140        1.72421387061829       -2.42312657546645
C           -6.86471087901129        3.07044821335722       -1.35602176159757
O           -7.47228294146042       -0.07365135755339       -1.80817530463517
H           -7.79071233744741        2.48457258258127       -1.38645601123165
C           -6.86850529628513        3.88883626011301       -0.06665824916130
C           -6.84412053062477        4.00428477458865       -2.56587102611903
H           -5.95232344555204        4.46947498306269        0.01704725746182
H           -7.71135473855633        4.57612109707653       -0.06096240426047
H           -6.95178677340210        3.24626066074924        0.80566814794390
H           -6.88449583890403        3.44298224955184       -3.49745453944258
H           -7.69581155419217        4.67957379984673       -2.53945417157734
H           -5.93443512636856        4.60086082575414       -2.56542960501159
N           -7.13308308015568       -0.75133360556834        0.35728563127209
H           -6.76616600487222       -1.21655252104835        2.04024264720893
C           -8.10960599111513       -1.81235184959157        0.31335921538927
H           -9.10801464041918       -1.42490618614076        0.07399383880651
C           -7.75501509230818       -2.91786215915286       -0.68702946571474
C           -8.14979596417466       -2.42560037011790        1.72452874909990
H           -6.73895751071678       -3.26458781537161       -0.50785288125889
H           -8.44282166864653       -3.74860965245455       -0.55681522020890
H           -7.82549756365527       -2.54253840194328       -1.70398249356255
O           -7.23805372475187       -1.92351227465596        2.54694491459775
O           -8.91753075226510       -3.29302510054077        2.03849915196291
