42
 energy: -62.486132354909 gnorm: 0.000610259060 xtb: 6.7.1 (edcfbbe)
N           -1.09409837898876       -1.14393839809445        0.16456471359305
H           -0.20770190506590       -1.30527193176005       -0.29855492475820
H           -1.34982568871462       -2.00628956304233        0.63875952488817
H           -1.98702242023225        0.11562261130929        1.31024566887584
C           -2.13207025627957       -0.79270206789147       -0.80598408562911
H           -1.71198715301224       -0.02669770945031       -1.47008160651753
C           -2.64879090960886       -1.95956231834820       -1.64354510901912
C           -3.26723632400383       -0.13120585326168       -0.03885935061208
H           -2.99688719494056       -2.75936932917003       -0.99300287054724
H           -3.48886689792592       -1.62152797954852       -2.24007181969020
H           -1.86458119981569       -2.34443550068757       -2.29227283200717
O           -2.92282107808806        0.36321872095321        1.17068379437244
N           -4.40615210163778       -0.06838936713836       -0.55960422006602
H           -7.28425107865187        0.48589396906807        1.73648468783770
C           -5.50463868170309        0.58301806133223        0.10084547014784
H           -5.26793141579176        0.82976528753303        1.14961891866957
C           -5.81719565150414        1.86939540222196       -0.69250165774271
C           -6.70007453435840       -0.33672522147548        0.06261365229308
H           -4.90789787793786        2.47420737963342       -0.71062291565201
H           -6.03146648281703        1.55334062649576       -1.71431656332114
C           -6.97656530346546        2.71596887754688       -0.15730918131630
O           -7.59860733209119       -0.17831115870632        1.11076154876500
H           -7.85801384903188        2.08088689127804       -0.01790805947901
C           -6.62352525769104        3.38859011186611        1.16933438652457
C           -7.33990274125957        3.78143572317812       -1.19062628255769
H           -5.79248738650138        4.07643943836594        1.02831844542613
H           -7.47379174072611        3.95362824477756        1.54513417289013
H           -6.33349530791300        2.66843314785600        1.93209286011180
H           -7.65212958397915        3.31781748208419       -2.12282101662518
H           -8.15579339968866        4.40129650132786       -0.82619754029595
H           -6.48449777122494        4.42229106512476       -1.39308843990573
N           -6.83631323119791       -1.16005888105592       -0.86288782300045
H           -9.08892131057903       -0.35944191048000        0.10288204400687
C           -7.90051751503967       -2.10907060484043       -1.04966489381878
H           -7.58221680668459       -2.73901251714091       -1.88832227545047
C           -8.18070120308665       -3.00020149253678        0.16894990090908
C           -9.21686749092462       -1.44185832369816       -1.47863111171230
H           -8.55703989577513       -2.42111967314949        1.00947559671754
H           -8.91548323094378       -3.75619086879411       -0.09666841881114
H           -7.25988521083122       -3.49286913278782        0.47282189537145
O           -9.67691742074103       -0.49140065394388       -0.66497201414919
O           -9.81102102700192       -1.76762509688627       -2.46613718824590
