42
 energy: -62.486133510942 gnorm: 0.000480053678 xtb: 6.7.1 (edcfbbe)
N           -1.64974490686626       -1.23234633374799        1.19528419890936
H           -0.69810377034119       -1.55015524603430        1.05812384040925
H           -2.15285806144205       -1.97317045618749        1.67595704402750
H           -2.65547835123214        0.27598366076014        1.84139345876425
C           -2.29612700984405       -0.94747231661676       -0.08448753914970
H           -1.60110785951448       -0.33267458878740       -0.67075828892636
C           -2.68159090754931       -2.18427214468362       -0.89262153387057
C           -3.51096591822140       -0.07963172782033        0.21282512762968
H           -3.35884554038235       -2.80998185786234       -0.31561067179363
H           -3.19086204858865       -1.87892279362595       -1.79968231069366
H           -1.79645865998680       -2.76216228172891       -1.15134723025698
O           -3.46495117994947        0.57748116711049        1.38207446859300
N           -4.44690611919603       -0.01516806102547       -0.62477435748070
H           -6.43612057811019        0.09551512951339       -2.52553258239634
C           -5.61720901215983        0.80491976307121       -0.36739019276104
H           -5.67524867964772        1.09248756925829        0.68893090930779
C           -5.58022300099426        2.05856917700695       -1.24986210242835
C           -6.77984395893177       -0.11355595430360       -0.66706075579082
H           -4.77907563163281        2.69898568823837       -0.87469757408686
H           -5.30452505640324        1.77550919224696       -2.27122741983113
C           -6.89529051147918        2.84746256501235       -1.26811744923625
O           -7.07236538594555       -0.35628909204712       -1.95677986117606
H           -7.69522735329596        2.20426799929911       -1.65218766132678
C           -7.28952969490203        3.31522115286911        0.13070391220748
C           -6.75247971860758        4.04650276209533       -2.20466230737446
H           -6.48008473444186        3.88327479435353        0.58404711112536
H           -8.16821261489830        3.95375175834494        0.07663883678489
H           -7.52545870453635        2.47054118305068        0.77239750495036
H           -6.48221235004547        3.72723573067686       -3.20914436992883
H           -7.68836819770108        4.59667308875935       -2.26234592922814
H           -5.98077803144604        4.72091844676005       -1.83974724955336
N           -7.34403700587966       -0.70079955757453        0.29401364030407
H           -7.71265351338904       -0.80245305254436        2.06152978633973
C           -8.39390824938222       -1.67388058900850        0.08623974531749
H           -9.12574929027670       -1.33339880765150       -0.65679289754316
C           -7.82949307679669       -3.02741750096135       -0.35985222097465
C           -9.10728869933186       -1.86622906758431        1.43279449484532
H           -7.06599489316334       -3.35820162810343        0.34145825104618
H           -8.63182775113149       -3.75934532968144       -0.38521034794821
H           -7.38723224613769       -2.93734755374460       -1.34850356022779
O           -8.48893553290622       -1.27360437467917        2.44727337334846
O          -10.11281744539550       -2.50884633054907        1.55564575171031
