42
 energy: -62.486133515577 gnorm: 0.000479818466 xtb: 6.7.1 (edcfbbe)
N           -1.29982604223949       -1.46720266397352        0.90967488205795
H           -0.29376028758478       -1.54464467681225        0.82721318963038
H           -1.68128944942673       -2.40933300273841        0.90661445598929
H           -2.62322905746407       -0.57704865432537        1.98379381977487
C           -1.86367637569966       -0.69582111366070       -0.19568709020181
H           -1.24252829454229        0.20006086940408       -0.32196949487284
C           -1.93746446426234       -1.44455900868273       -1.52632834011896
C           -3.23642053932473       -0.21124535745306        0.25129491475466
H           -2.53449731027935       -2.34891337716452       -1.41834262490052
H           -2.39642973994663       -0.80791476573542       -2.27569173880600
H           -0.93968152139155       -1.72285906070591       -1.85934553868857
O           -3.43175892699355       -0.20482865068979        1.57583004212704
N           -4.06905812353914        0.18124828826430       -0.61037496589325
H           -4.97101546413451       -1.33864926236133       -1.43040409592617
C           -5.39285367723341        0.62393349216186       -0.21430726428210
H           -5.43371561803793        0.90773720582581        0.84305157633626
C           -5.73643223315246        1.83186144300932       -1.10528659128696
C           -6.35179715883584       -0.52744003399459       -0.44004062497210
H           -4.97124470903865        2.58958971127392       -0.92182262034003
H           -5.63836220653437        1.51214850514406       -2.14515061695115
C           -7.12014784780052        2.44907228037058       -0.89381123585548
O           -5.87627907254571       -1.56714812465774       -1.14794587440449
H           -7.87661633170476        1.68680199152045       -1.09789631107674
C           -7.30738692455293        2.95594001342321        0.53367021589224
C           -7.31560443023383        3.59628355673269       -1.88446511274951
H           -6.54942440683146        3.69874213914579        0.77507861156990
H           -8.28581557681805        3.41778229383097        0.64019286776119
H           -7.23668014974993        2.14216760337230        1.24980090729603
H           -7.20380850096015        3.24722014813029       -2.90832694229686
H           -8.30970663710869        4.02233397725191       -1.77555918930053
H           -6.58405474773031        4.38227978306851       -1.70764341061468
N           -7.54213124062521       -0.44064958604750       -0.03566598879395
H           -8.93519127468580        0.54554639141110        0.63347114164139
C           -8.50095640456761       -1.49497072366320       -0.28028049551101
H           -8.44543140072427       -1.86583580910745       -1.31196373898752
C           -8.30471305890071       -2.67517404447736        0.67819197304614
C           -9.89851761489965       -0.90749243641204       -0.03788781442653
H           -8.31071385470384       -2.32211001795662        1.70758218888668
H           -9.11323493945311       -3.38762857537268        0.54043524633172
H           -7.35418930877560       -3.16221851262782        0.47544809019492
O           -9.88133900132892        0.28831226349307        0.53774469327688
O          -10.90920733565900       -1.48740032866757       -0.32395605760905
