42
 energy: -62.486133517715 gnorm: 0.000479078545 xtb: 6.7.1 (edcfbbe)
N           -1.30902146326351       -1.31845297679293        0.64767958311962
H           -0.34443845179477       -1.45098057747704        0.36994914424286
H           -1.66144487932855       -2.21804637098242        0.96378525585798
H           -2.37097398669811       -0.15034485181758        1.71564573912729
C           -2.11649157524074       -0.83486823986473       -0.47283205108389
H           -1.53869575535006       -0.05553402939829       -0.98469960152989
C           -2.51741733025425       -1.90846479731852       -1.48209037044189
C           -3.34389729167878       -0.15087993281641        0.10914949475369
H           -3.04592138223703       -2.71630444461387       -0.97880018264727
H           -3.18242371743656       -1.47237986158103       -2.21978362964978
H           -1.63843502681329       -2.31550524847538       -1.97760987051502
O           -3.25810630028597        0.14817950443366        1.42806592466875
N           -4.33413590988903        0.08942617180195       -0.62380368878378
H           -5.69646841750443       -0.53287599563982        1.83653434028728
C           -5.47734629749377        0.81892620788581       -0.10880843729384
H           -5.24323303562004        1.31213426299398        0.84676112270649
C           -5.89141051535990        1.85061594767513       -1.15953335248683
C           -6.54657715888490       -0.22174362273375        0.11585839337897
H           -5.03874214354246        2.50859383509750       -1.33938905494650
H           -6.10270010769242        1.30065464406489       -2.07522979324750
C           -7.11613797847896        2.68521764979724       -0.77427310606001
O           -6.47408213655682       -0.84212017636952        1.35250249341109
H           -7.94705674953629        2.00348655849054       -0.57008828955475
C           -6.86278358686882        3.54377154349233        0.46372581609795
C           -7.50455314359972        3.57584096791056       -1.95280916553084
H           -5.97908957614376        4.16361255622119        0.32338593095830
H           -7.71297515126970        4.19710487371771        0.64566266197884
H           -6.71994023076886        2.93268608892442        1.35153097992003
H           -7.70977278526365        2.97262617960443       -2.83304821897322
H           -8.39567850197643        4.15258612792694       -1.71723024860995
H           -6.69889734736531        4.26857427107396       -2.18799993078555
N           -7.35074530759373       -0.52397680815286       -0.78854986844699
H           -8.27543331616062       -0.95405345012381        1.58465357432665
C           -8.35647607522159       -1.55314008822372       -0.75458543523257
H           -8.75118235022689       -1.60569971165213       -1.77581915740936
C           -7.83247357150257       -2.93694950585130       -0.34676721413145
C           -9.54056479528851       -1.18703690349991        0.15397895379607
H           -7.48667029979019       -2.94428160612617        0.68466076343113
H           -8.62508360554468       -3.67248505219566       -0.45912425944255
H           -7.00111964195917       -3.20867931760238       -0.99352637057184
O           -9.23480048476556       -0.89664840661411        1.41835476912655
O          -10.67279387913757       -1.18461121702209       -0.23654854281326
