42
 energy: -62.486133506925 gnorm: 0.000480372781 xtb: 6.7.1 (edcfbbe)
N           -2.23716264959868       -0.65496047761504        1.82800898489625
H           -2.25300118232661        0.00160570742276        2.60101674817944
H           -1.27737497265672       -0.94107449605083        1.67779790200398
H           -3.95906386663478       -1.48761431292210        1.94080636145642
C           -2.79877635296467       -0.05205809124159        0.62212965283780
H           -2.47666376548908        0.98367324238744        0.44686140094504
C           -2.43324229622891       -0.90374320606434       -0.59408838452590
C           -4.31797721141503       -0.07228893818715        0.76812865907032
H           -2.75294346026526       -1.93192768207540       -0.43948200680312
H           -2.92564957424910       -0.50836795033403       -1.47721035549812
H           -1.35746769003853       -0.89198279781861       -0.75633997754532
O           -4.75927733633694       -1.06160262415238        1.56122751139724
N           -4.96266779494626        0.82661594599835        0.18632622558412
H           -8.70270234766600        1.43736674421610        0.07276809900927
C           -6.35869790706729        1.05840873395976       -0.01526999538804
H           -6.60523700637795        1.93508505679223        0.60772452086814
C           -6.53037250287405        1.45765069041851       -1.50678241779850
C           -7.41111133034694        0.01019921757368        0.29427771403344
H           -5.87221453729265        0.81672076996347       -2.09486415295613
H           -7.55588224827361        1.25335929784027       -1.82494756491398
C           -6.21062362590335        2.92650232777912       -1.80644753117625
O           -8.68805607412862        0.48644745084430        0.23611795896279
H           -6.75738976685645        3.55710130829287       -1.09383782603959
C           -4.72005260189212        3.21498342718678       -1.66312187277340
C           -6.68285525052442        3.27835872698372       -3.21675896881622
H           -4.16008189023955        2.66323623163500       -2.41430607211552
H           -4.52476700092817        4.27660401720692       -1.79729234691982
H           -4.36924375319203        2.90516603735507       -0.68414126904826
H           -7.75702725935478        3.13663017588066       -3.31814414681599
H           -6.45277635216437        4.31625602896824       -3.44507419290561
H           -6.18370520617956        2.64821770728819       -3.94938656984072
N           -7.16518425877867       -1.18148523789988        0.59658950533039
H           -5.99634550194801       -2.46365648875773        1.34868499500832
C           -8.23378552241285       -2.12555034529409        0.83533074328005
H           -8.99060718681552       -1.71025635936650        1.51466375002002
C           -8.92498725217830       -2.54501359253481       -0.46699751606068
C           -7.63628046226246       -3.37843516587344        1.49087887722444
H           -8.18203095624890       -2.88380210542952       -1.18637187403689
H           -9.61326375987362       -3.35861069230956       -0.25585383842888
H           -9.47320220047454       -1.70664884180409       -0.88862008303973
O           -6.32293537910812       -3.34799181481316        1.64500852559234
O           -8.31350399285878       -4.31514286046550        1.81992571143933
