42
 energy: -62.486133513464 gnorm: 0.000479879317 xtb: 6.7.1 (edcfbbe)
N           -1.18895414151629       -0.80932736659896       -1.51909130320756
H           -0.33569053790593       -1.35456259779039       -1.51535744763262
H           -0.92479359188974        0.17118197498515       -1.56374097066386
H           -2.85732243744858       -0.80961515409779       -2.41129798598774
C           -1.97574249445965       -1.05508397771675       -0.31003892237420
H           -2.01374236010021       -2.14253711973247       -0.16259003819740
C           -1.43491920758474       -0.39450869323046        0.95414111093801
C           -3.40105546934949       -0.61061436633250       -0.60928694990718
H           -1.35484146065515        0.68083529692139        0.80999426096594
H           -2.11865310910198       -0.57835210433511        1.77543848772757
H           -0.45387748015429       -0.79389580921534        1.20229394665980
O           -3.69906195838585       -0.62602176204999       -1.94221308702744
N           -4.16455039816188       -0.30195291683885        0.32956650325404
H           -5.26921761845268       -1.42886718793899       -1.65776414571823
C           -5.52907908022516        0.16234381184085        0.25689522502259
H           -5.83333355878256        0.32111904579319        1.29501566796326
C           -5.56566631701807        1.51182746389667       -0.50218346232691
C           -6.53239066737073       -0.78669909909786       -0.36689206093175
H           -4.77612690475189        2.13741433280091       -0.07796930727071
H           -5.31210880346845        1.31768329025552       -1.54775475237785
C           -6.89367529468504        2.26941567730907       -0.44131243609759
O           -6.15093315913637       -1.65260947616824       -1.31530289081600
H           -7.69275608044829        1.60821039172525       -0.78745274630878
C           -7.22109314328680        2.73132393945172        0.97591269089993
C           -6.82824858649113        3.47408121214189       -1.37983405112432
H           -6.44067420637373        3.39138548687796        1.34968376120868
H           -8.16264042434957        3.27445398876230        0.98216979951655
H           -7.31422881178128        1.88716028487598        1.65306449156122
H           -6.62985608458466        3.15949547668490       -2.40208036049032
H           -7.77235319823015        4.01257014093273       -1.36659455235096
H           -6.03925420206605        4.15698681763648       -1.07043372086042
N           -7.73592297607398       -0.66134287744427       -0.00197890315298
H           -9.05025699445189        0.33306533921991        0.78047406561230
C           -8.78802999753227       -1.45849355669235       -0.58971922136253
H           -8.65782020450768       -1.57746105507586       -1.67360527905363
C           -8.86556498575291       -2.84858869859144        0.05154803048810
C          -10.11300506884545       -0.73031071916613       -0.32458445152879
H           -8.95141784949031       -2.75407197185649        1.13219018965197
H           -9.73614294961055       -3.37331160450798       -0.33180437151650
H           -7.96755675521502       -3.41395272671738       -0.18456469858728
O          -10.00461621423089        0.27002240195571        0.54206536511920
O          -11.14938452888967       -1.04872813240471       -0.83834116522407
