42
 energy: -62.486133524205 gnorm: 0.000477830210 xtb: 6.7.1 (edcfbbe)
N           -2.32320938778701       -1.00333268393374        1.92788152898248
H           -1.98244507816661       -0.14678120561669        2.35048188817639
H           -1.56296447184637       -1.67275396425720        1.91340050707478
H           -4.18544865398435       -1.07477629685566        2.37473645972212
C           -2.82935247741192       -0.75669032995263        0.57934361756680
H           -2.22814530135557       -0.04513299312209       -0.00175220296305
C           -2.92953790110974       -2.07900642514250       -0.18255657913869
C           -4.23797134156136       -0.20327740628291        0.71864281828498
H           -3.51927633960146       -2.79501068559306        0.38564575193603
H           -3.40882889299974       -1.90956439202894       -1.14167128404634
H           -1.93871742240931       -2.49477754576900       -0.35161646026076
O           -4.86251882775561       -0.59891567183122        1.84416330585071
N           -4.66575602881105        0.58833392494439       -0.15523712741052
H           -8.35509110853686        1.38407489546040       -0.68834496307149
C           -6.01810916247944        1.06419129229309       -0.27236166776733
H           -6.21004161872262        1.78228415207806        0.54481192624412
C           -6.13436081262369        1.79418232763222       -1.63119259412850
C           -7.10885639921608        0.02110856689337       -0.13107481876843
H           -5.14749376836017        1.74982897037378       -2.09248428296017
H           -6.81909440491752        1.25135596591693       -2.28776257164275
C           -6.56839194394998        3.26234121199723       -1.52685737680950
O           -8.36095010990165        0.45609290879321       -0.42293732225078
H           -7.44013578332604        3.34488556969202       -0.86210662869052
C           -5.44356939452771        4.11511734752084       -0.94552826004463
C           -6.96997174568803        3.78852251492877       -2.90353434314505
H           -4.59166667571017        4.11793296190983       -1.62101772292123
H           -5.77550909907410        5.14108405010266       -0.80335552493747
H           -5.11258111344022        3.72368914837318        0.01288803640948
H           -7.80714271938524        3.22402348452810       -3.30942510336879
H           -7.26194135267337        4.83409593598179       -2.84126115934887
H           -6.13476097536736        3.70632542037512       -3.59483732992975
N           -6.87978982926585       -1.14826759721168        0.26231417992614
H           -5.88051691956536       -2.19909238158531        1.41307731880011
C           -7.93047327682860       -2.13344619045959        0.38171597233261
H           -8.79372712007961       -1.73006386427280        0.93010596149308
C           -8.40940655409937       -2.63848625967491       -0.98166179140122
C           -7.37135860558455       -3.31449493132764        1.18981528467879
H           -7.55602026751561       -2.95429342361219       -1.57810839904711
H           -9.07088348806350       -3.48666495871330       -0.83066056565636
H           -8.94152795362794       -1.85164226332675       -1.50925123015562
O           -6.15161941171593       -3.11532441072438        1.66854683962061
O           -7.98702751027014       -4.32970049361441        1.36796064636021
