42
 energy: -62.486133515044 gnorm: 0.000479637030 xtb: 6.7.1 (edcfbbe)
N           -1.45824042275511       -0.45402422305608       -1.98279662541802
H           -0.77839386861168       -1.08118667406458       -2.39490519006383
H           -0.94803669927445        0.30022917039042       -1.53144440609236
H           -3.08339766305460        0.42974483350548       -2.46546608605763
C           -2.29008914825370       -1.14810578195176       -1.00197066659352
H           -2.61575824262282       -2.09084500948770       -1.46073733623059
C           -1.59192675352738       -1.44757669156704        0.32247756439612
C           -3.54985993289910       -0.30626835662758       -0.80698699177975
H           -1.27101466801859       -0.52105633368578        0.79433727272764
H           -2.28004336300027       -1.95115311894473        0.99234711283723
H           -0.72309082840115       -2.08200973070872        0.15769775626978
O           -3.82580557559477        0.50970014216339       -1.83099280017503
N           -4.21392874086268       -0.46317198034599        0.24857555843420
H           -5.60393640625680       -1.97032100971525        1.51008970986381
C           -5.46301123940026        0.20330164490405        0.57504975995132
H           -5.42786821261811        0.34054937974483        1.66626320890160
C           -5.74872686706464        1.54654344302332       -0.09760671408527
C           -6.51653001954492       -0.84324341212916        0.27708909654109
H           -4.86453389700020        2.17852232198973        0.00759908044400
H           -5.91289328816579        1.37319766971557       -1.15979388905660
C           -6.96401084847834        2.26845885092035        0.49692372678323
O           -6.42510955426503       -1.97904880883392        1.00000792778995
H           -7.76826749766831        1.53911767574552        0.63391744659701
C           -6.63710895920716        2.90167192702745        1.84810210971540
C           -7.44637958500527        3.34416119432014       -0.47461201095807
H           -5.84436179475201        3.63909819804119        1.73783030911789
H           -7.51395967339257        3.40213232288972        2.25268661128794
H           -6.31371048480060        2.15631150499504        2.57072036139479
H           -7.74911491747863        2.90302413813250       -1.42099920089632
H           -8.29715215666857        3.87942306602620       -0.05921792743855
H           -6.65186769821937        4.06187536388137       -0.66801522851957
N           -7.34399967153765       -0.67242943532445       -0.65304567155900
H           -7.88666333740593        0.28450727893234       -2.07330464153296
C           -8.31594900394164       -1.67205011132649       -1.02672656480254
H           -7.86713826298255       -2.67082772679880       -1.10199852394260
C           -9.48411216851740       -1.72886309728593       -0.03631854282307
C           -8.86519631949225       -1.26435171415470       -2.40347422263946
H           -9.91608798608677       -0.73738732335965        0.08581980170673
H          -10.24525848597652       -2.40340099166822       -0.41799726588249
H           -9.13397944760933       -2.08588980408037        0.92897128730760
O           -8.48978054251194       -0.04922742296638       -2.78086376426626
O           -9.57989703160200       -1.97115714508233       -3.05829627937878
