42
 energy: -62.486133512212 gnorm: 0.000480116907 xtb: 6.7.1 (edcfbbe)
N           -0.85421383959922       -1.07081866929801       -0.08190423195489
H           -0.23925001540738       -1.69886649970953       -0.59495280931586
H           -0.83435563444815       -1.35502718238855        0.89953967504292
H           -1.44532268338749        0.65626708142646        0.75108967769164
C           -2.21588908507620       -1.15509789170361       -0.58267560092465
H           -2.21279810089539       -1.24908509701133       -1.67633867415859
C           -3.02093649306833       -2.31312449486900        0.03565698001599
C           -2.98507273114705        0.11040224268629       -0.18867738913251
H           -3.07908945308157       -2.19299665194446        1.12083640968958
H           -4.03340096115077       -2.31881719427376       -0.35981187793127
H           -2.53517820300249       -3.26521795836143       -0.19539630849368
O           -2.40729761050902        0.86990801742117        0.78266809122114
N           -4.04713739401988        0.35619153962432       -0.81435109367874
H           -5.02067694072474       -0.50526727499651       -2.11741292859739
C           -5.31125856533737        0.82320109537848       -0.31683127984538
H           -5.30990768505646        0.87264782296613        0.79038787613588
C           -5.69780384463481        2.20120933436874       -0.88201564900451
C           -6.29399799647627       -0.24303287873305       -0.79589693443366
H           -4.99884473546008        2.92183745435669       -0.44975980212287
H           -5.55627054012957        2.19699713188535       -1.96483625656859
C           -7.13998691754356        2.60023901033344       -0.57254207830488
O           -5.93793326236993       -0.84425271721177       -1.92529508285990
H           -7.80611279414454        1.83527046164595       -0.98028196243832
C           -7.39543495345500        2.71438267510000        0.92834215041810
C           -7.48099485231905        3.91933648233612       -1.26337869392479
H           -6.75986533428007        3.48434041784049        1.35711364178278
H           -8.43407608334526        2.98085808705543        1.10532473775443
H           -7.18903450414543        1.77411145486969        1.43210938722402
H           -7.34421858454009        3.83272211998348       -2.34346266818826
H           -8.52673683152674        4.17358424702572       -1.07692757518292
H           -6.85213225703905        4.72257501853765       -0.88747160764510
N           -7.34177280241785       -0.51281908471249       -0.13382181702607
H           -8.81197478544459        0.16170189160374        0.85341739780477
C           -8.25586254363962       -1.51228977695578       -0.64594503214411
H           -8.28261325051099       -1.50636947073938       -1.74485234135899
C           -7.87203392310094       -2.91064256836856       -0.15763359332944
C           -9.66616977008606       -1.18326744633538       -0.15893360693347
H           -7.78330432630269       -2.90673848097739        0.92073608289792
H           -8.63956475794914       -3.62737426725513       -0.45571067604998
H           -6.92055072874463       -3.21329883670354       -0.59409057542490
O           -9.72503805478160       -0.18459220715068        0.72118951369293
O          -10.64204799762635       -1.77024774410088       -0.53811236865222
