42
 energy: -62.486133513001 gnorm: 0.000479567114 xtb: 6.7.1 (edcfbbe)
N           -1.89337120023885       -1.51913088827784        1.23484264598294
H           -1.43994015837345       -0.71308734561253        1.65289344346306
H           -1.19695835194485       -2.24700905639359        1.12588734698664
H           -3.75172339948399       -1.32471904430437        1.86598258787335
C           -2.48282041234814       -1.16797321146134       -0.05509371466996
H           -1.83859161477128       -0.54209005373091       -0.68864958925582
C           -2.84930120186385       -2.44477547647498       -0.81441702077195
C           -3.76270493056601       -0.40628262239216        0.23429108122254
H           -3.49874235419295       -3.06901392939492       -0.20426225862610
H           -3.36664255947400       -2.19052098934179       -1.73462322949897
H           -1.95217721581294       -3.00909566385439       -1.06001523211696
O           -4.35991308846019       -0.72405176361479        1.38988473682595
N           -4.18519064697833        0.43682605395022       -0.60054162808240
H           -6.00669940199823        0.12710254112408       -2.50318315121466
C           -5.46507938837139        1.09344879510301       -0.37626164994860
H           -5.57213743539286        1.37715193886327        0.67717995043246
C           -5.56305515839294        2.32238447725863       -1.28367058037347
C           -6.51727305507193        0.05063830647556       -0.66826845912868
H           -4.86504104108010        3.07198920032650       -0.90682254974456
H           -5.22246199547102        2.05354394672384       -2.28789656050245
C           -6.97134230906071        2.92412474900104       -1.35815178245069
O           -6.63578468848019       -0.35404495349194       -1.94988030564496
H           -7.66212656141235        2.16865863845261       -1.75016442189742
C           -7.47041126707082        3.35636113968567        0.01863209924746
C           -6.96658398559190        4.11401342682849       -2.31651201899232
H           -6.76048093514768        4.03671022193440        0.48420181272802
H           -8.42511151730138        3.86882444444093       -0.07412591391752
H           -7.61054884121280        2.49676003581200        0.66848186633907
H           -6.62563318254336        3.81591552920627       -3.30575977014919
H           -7.96674114309909        4.52955129726481       -2.41140287983964
H           -6.30505309862024        4.89433230068778       -1.94643254041442
N           -7.15799527933748       -0.45804197680466        0.28669191904224
H           -7.54855853715064       -0.53416514174902        2.05444493794867
C           -8.10015884254529       -1.53780108528593        0.10183007120893
H           -8.81300891359673       -1.32515355090520       -0.70428145256340
C           -7.39265586866193       -2.86527550861910       -0.19570479483386
C           -8.86622696092583       -1.69258243719933        1.42437412555007
H           -6.65398465606922       -3.06799723092439        0.57762009294348
H           -8.12449787392285       -3.66796272079784       -0.21011113507739
H           -6.89360462169133       -2.81196859895300       -1.16000212899236
O           -8.31749961501774       -1.02493144239523        2.43087955294822
O           -9.84835793711077       -2.37268816100990        1.53705157229490
