42
 energy: -62.486133501090 gnorm: 0.000481532501 xtb: 6.7.1 (edcfbbe)
N           -0.87856256320978       -0.21849998322137       -1.25605752439067
H           -0.15084752443531       -0.80667395531925       -1.64295244125840
H           -0.48179852130374        0.28098905825879       -0.46484695624545
H           -2.18111472135922        1.03013233291655       -1.83993556188119
C           -2.02408183037568       -1.01346955014680       -0.81885759532448
H           -2.24819825710514       -1.72689196141412       -1.62335037877609
C           -1.80269325254931       -1.77608883196671        0.48588263113648
C           -3.22347692231698       -0.06557674476197       -0.73429119534262
H           -1.56611736091068       -1.08049042094178        1.28869575745017
H           -2.70190603164725       -2.31754028301454        0.76044032014492
H           -0.98161086796273       -2.48188159848937        0.37538277977551
O           -3.08652735896919        1.04800081103275       -1.46314774487320
N           -4.19171431477954       -0.40729144097918       -0.00947674171806
H           -5.05813878163245       -1.95435097524578       -0.55625512063253
C           -5.48255031357007        0.22661629522136        0.15133142167886
H           -5.62195228508045        0.32007060002740        1.23625508847386
C           -5.62343572455563        1.61308216421231       -0.49814605794621
C           -6.50981157844985       -0.78744043715158       -0.34050477189842
H           -4.81663785301828        2.23125651975487       -0.09719053672730
H           -5.45640265315791        1.50951676799921       -1.57149839718185
C           -6.95122853407699        2.34621413249667       -0.28622369714746
O           -6.02203024232608       -1.97941783720391       -0.72053547205801
H           -7.72535109599632        1.82634126609277       -0.85396117569330
C           -7.36435370743942        2.40066798163651        1.18172168223802
C           -6.82585478493684        3.76321482155889       -0.84602116992389
H           -6.58015310812280        2.85842207140647        1.78202173674378
H           -8.26792739355367        2.99581209889434        1.29157799519221
H           -7.56464149376685        1.40457641944368        1.56720070296877
H           -6.52054362216179        3.73925522587353       -1.88938345843429
H           -7.77973293017561        4.28070099821167       -0.78055815489389
H           -6.08690698699046        4.33279450246676       -0.28569574915253
N           -7.73855013564733       -0.50578127963318       -0.35430347693374
H           -9.19081836580490        0.61455885402671       -0.02793355575044
C           -8.71520197145878       -1.47275010515531       -0.81048327873265
H           -8.41920348529417       -1.92915035842883       -1.76285372727953
C           -8.94673575461294       -2.58691069618129        0.21870514936772
C          -10.04584667750916       -0.73447649223767       -0.99888571848622
H           -9.21781422157992       -2.15518927618456        1.18044386286270
H           -9.75391531874659       -3.22848229225465       -0.12345032689200
H           -8.04148093272522       -3.17670834702153        0.33601050489062
O          -10.08552072381903        0.45126121739505       -0.40165148895008
O          -10.97480105855564       -1.20044707706622       -1.59828312173647
