42
 energy: -62.486133519956 gnorm: 0.000479095779 xtb: 6.7.1 (edcfbbe)
N           -2.19911110852837       -1.12250194156568        1.68886990622805
H           -1.27051227877514       -1.52659707183260        1.66569681693083
H           -2.79312569776832       -1.75792375495065        2.21625978953996
H           -3.12559390113805        0.51042433010384        2.05835733028927
C           -2.73444537010475       -0.96838627102667        0.33614995642028
H           -1.95943588258494       -0.48010485650387       -0.26925225319015
C           -3.15444742346865       -2.27494004437707       -0.33362157431418
C           -3.90204349123742        0.00243135122231        0.43177064305701
H           -3.85804828490003       -2.81074438897043        0.30003401577600
H           -3.64187218294937       -2.05312088097598       -1.27655333995831
H           -2.28678568771249       -2.90684704680969       -0.51237817974179
O           -3.88241164799019        0.80453171840267        1.51131191522231
N           -4.78847417786564       -0.00103592259965       -0.45929840697252
H           -8.04788040511082        1.13460414419201       -1.67434651069728
C           -5.92878576017567        0.88706918804902       -0.37755245555104
H           -5.95667314772889        1.41116749084288        0.58978238770075
C           -5.85818949794902        1.91494261367590       -1.51625698447171
C           -7.14507401764985       -0.02216958988533       -0.43868645353123
H           -4.80720866968765        2.17635194301009       -1.65498537415532
H           -6.18118253022594        1.44405029486368       -2.44957505103767
C           -6.65328070149206        3.20135185202723       -1.23805407192074
O           -8.20708962388386        0.31179809298535       -1.19402839447772
H           -7.59473597152582        2.95529513497492       -0.73005119757978
C           -5.85946681622812        4.13004183435501       -0.32094804263932
C           -6.98096661486411        3.91585676258912       -2.54876921962845
H           -4.95377432280316        4.46716762025273       -0.82057372201278
H           -6.45143579036145        5.00335917262298       -0.05717898060983
H           -5.57336519441400        3.62107098502286        0.59614214201606
H           -7.60171696027135        3.29752487898325       -3.19518983157312
H           -7.51451820967822        4.84282843307360       -2.35255362947139
H           -6.06518010941645        4.15595374923935       -3.08436534159886
N           -7.08927842488386       -1.05999234913500        0.26900201543095
H           -6.03875058456218       -2.03157854637895        1.23416354231779
C           -8.08750670049481       -2.09378902224844        0.34996349127671
H           -9.01891660308973       -1.71259838055345        0.78733377771011
C           -8.40096107656418       -2.75397696754720       -0.99609555291730
C           -7.50478013372053       -3.16080604929862        1.29875699704403
H           -7.47556863751896       -3.06937145425011       -1.47416230826218
H           -9.02965377448501       -3.62379027059307       -0.82736159279706
H           -8.91613452143251       -2.05397580153638       -1.64794625320369
O           -6.25376268613231       -2.90400821074067        1.66241995533798
O           -8.11404663537679       -4.13158858677938        1.65270520167239
