42
 energy: -62.486133508479 gnorm: 0.000480305580 xtb: 6.7.1 (edcfbbe)
N           -1.19693321580905       -0.57497557762294       -1.44002582135013
H           -0.57254244847799       -1.25063177360160       -1.86330000510774
H           -0.69331042574011       -0.12499338864949       -0.68056695669508
H           -2.43271150821211        0.80506289481285       -1.96530731580774
C           -2.39730681810837       -1.22834890614741       -0.91887401585899
H           -2.78281641401951       -1.87878724505470       -1.71472663320654
C           -2.17608059545120       -2.05764430374760        0.34287882044934
C           -3.45435827897929       -0.14585128519541       -0.71315442291232
H           -1.76460332223148       -1.43442371053126        1.13424360116319
H           -3.12750555644166       -2.45441180044917        0.67907384357829
H           -1.48972075601367       -2.87860869863706        0.14430830807027
O           -3.27323211591201        0.94054315206216       -1.48274630844384
N           -4.37330363271131       -0.36626087391578        0.11032781429431
H           -7.19983818159331       -0.13062733891386        2.08180182316554
C           -5.50791219845320        0.46959290765073        0.40943148897370
H           -5.41473052785619        0.71216660948072        1.47907653456394
C           -5.68781571919560        1.76224628097736       -0.40374702335488
C           -6.73061363917689       -0.40363257413878        0.20920654572309
H           -4.79871727032410        2.38240393466119       -0.28689709778734
H           -5.76727076025037        1.47190306786830       -1.45140319310110
C           -6.92838942472098        2.57201748605772       -0.00864614665745
O           -7.56810122119053       -0.55789849846444        1.29937446740167
H           -7.80003552996449        1.90816658635030        0.01346944332120
C           -6.76944497882168        3.22890957120151        1.36198264508845
C           -7.18684258444781        3.64475434971072       -1.06484078412243
H           -5.92208593402313        3.91139751907095        1.35428531754779
H           -7.66266059042908        3.79646313981917        1.61308402721612
H           -6.60727686173801        2.49616890117834        2.14984765874026
H           -7.36432201211948        3.18772132110169       -2.03486144418759
H           -8.05925130327502        4.23826513528465       -0.80122119617506
H           -6.32920240906797        4.30895832716345       -1.14789587803115
N           -6.92320650361144       -0.92540167367661       -0.90853079939343
H           -9.12363649033674       -0.46201520196507        0.37427536343706
C           -8.00383500263653       -1.79337274708398       -1.29665890003005
H           -7.73742811381380       -2.15690399426589       -2.29588800760015
C           -8.21968795023600       -2.99487515356544       -0.36643014447761
C           -9.33381160565902       -1.03875062337851       -1.44737591783744
H           -8.55281166964442       -2.68199926234988        0.62072098281852
H           -8.96608930266050       -3.65718158944436       -0.79799723042250
H           -7.28289939714079       -3.53697589705271       -0.25915670721210
O           -9.74694266391712       -0.36974263869510       -0.37075962292973
O           -9.97690633707153       -1.06445214074141       -2.45744194551939
