42
 energy: -62.486134097618 gnorm: 0.000279406504 xtb: 6.7.1 (edcfbbe)
N           -2.12540861198624       -1.31043385331519        1.74087851991821
H           -1.64451318787044       -0.51919593789076        2.15449731517040
H           -1.46951249346253       -2.07871838214311        1.67114901400973
H           -3.94121655731536       -1.14658052503565        2.31289707330423
C           -2.67108902678710       -0.96761783098942        0.42892050095615
H           -2.02652058326574       -0.30421405425652       -0.16323493069233
C           -2.94539803902040       -2.24472525135183       -0.36709900512324
C           -4.00026254943210       -0.26740795328789        0.66037485937166
H           -3.54874153261087       -2.93257756213065        0.22087531864971
H           -3.47915835424942       -1.99538628929561       -1.27885093526465
H           -2.00931336787154       -2.73402393985079       -0.62869886075623
O           -4.58883569901137       -0.58796111617035        1.82803548299360
N           -4.41668653317381        0.54561210150483       -0.20005024714714
H           -8.05730795204920        1.74351557483540        0.05537622674247
C           -5.71547602036742        1.17356233021786       -0.16927972261128
H           -5.73802147327260        1.91519392417046        0.64485049963356
C           -5.82350223368766        1.88227890453525       -1.54022918367397
C           -6.87075088151851        0.22448662045973        0.06475243333279
H           -4.84246717087319        2.33003146236999       -1.70839099506064
H           -5.95310863068274        1.10411468581172       -2.29507440354750
C           -6.89153388619178        2.96379094306930       -1.74455828691475
O           -8.10498949068345        0.78225627665071        0.11559913072088
H           -7.89179419977091        2.51501778271108       -1.73291023879935
C           -6.81514543808023        4.06835195762218       -0.69032614048547
C           -6.69939219599808        3.57528133005831       -3.13385531437231
H           -5.81876712808852        4.50482068565179       -0.68021863091571
H           -7.52969030287638        4.85572178827829       -0.92105718061726
H           -7.03461150257674        3.70637620284851        0.31301273069097
H           -6.75258172183395        2.80721396752093       -3.90149969632030
H           -7.47171162945456        4.31427719830952       -3.33471863137769
H           -5.73015389413028        4.06359538492980       -3.20353713108934
N           -6.68791992424510       -1.00257556572136        0.26494169425882
H           -5.64021707771245       -2.20419144306227        1.16269452410498
C           -7.79209661367112       -1.90846808340443        0.48343340018151
H           -8.51468370368209       -1.49183343390629        1.20006110103530
C           -8.52726420035073       -2.24043737894256       -0.81709624702207
C           -7.22003955362337       -3.19705888145844        1.09239382505369
H           -7.81269594054019       -2.56317456174464       -1.57144674133170
H           -9.23330975573804       -3.04433298901376       -0.62896207796001
H           -9.05953433536714       -1.36558655089589       -1.18121085693177
O           -5.93092217493530       -3.11882787406716        1.39774340213538
O           -7.87984760809824       -4.18219984138444        1.27875319363908
