42
 energy: -62.486133511586 gnorm: 0.000479701518 xtb: 6.7.1 (edcfbbe)
N           -1.33124760781859       -1.59738016369034        0.28666431385661
H           -0.40483349253485       -1.78650922759424       -0.07723403433440
H           -1.77773383898984       -2.49424311278309        0.46041248863726
H           -2.25701989424407       -0.51389046762096        1.59750991083616
C           -2.12403357926938       -0.83821830223590       -0.68180454069929
H           -1.50785926986087        0.00989486177097       -1.00839980725761
C           -2.58071011572115       -1.63204982548850       -1.90231266749583
C           -3.31205778573486       -0.25507664350387        0.06612626864779
H           -3.15917840412749       -2.49777306658205       -1.58803577581755
H           -3.22164658042141       -1.00646531841396       -2.51313394511000
H           -1.72471844251190       -1.96481678466282       -2.48627218689692
O           -3.13078043186349       -0.12297464213975        1.39982278920216
N           -4.34355126294268        0.07320582151355       -0.56696506063374
H           -7.24078739076476        0.52505229207560        1.73458067255808
C           -5.47073011821410        0.67498022284732        0.09445769449563
H           -5.24380808542523        0.92960759967761        1.14315006236400
C           -5.83026909870962        1.94219916542645       -0.70772805183978
C           -6.63564721908077       -0.28416754624760        0.06296535593425
H           -4.94145223654990        2.57582604235097       -0.73916548773641
H           -6.03858358193211        1.60846863630712       -1.72489280915653
C           -7.01415144141442        2.75530966955606       -0.17510994502433
O           -7.53773966125789       -0.14673066808359        1.10843646905440
H           -7.87877584620107        2.09623879059064       -0.04108912175276
C           -6.68613829646876        3.43387182297851        1.15500625536496
C           -7.40099190856290        3.81318734606890       -1.20763325088321
H           -5.86502336297905        4.13532618451219        1.02277763779780
H           -7.54964423259445        3.98485332106120        1.52135664608091
H           -6.39335622581719        2.71890191529651        1.92177911333732
H           -7.69205422421624        3.34346781709749       -2.14362524665238
H           -8.23751199838095        4.40780448985021       -0.84802558881939
H           -6.56308848741773        4.47927820316369       -1.40164695358180
N           -6.74753376872418       -1.11757895963665       -0.85783171679744
H           -9.02809662835167       -0.37019717842880        0.10777156507477
C           -7.78899150515025       -2.09538877418419       -1.03258376728303
H           -7.45669488061702       -2.72542194620780       -1.86577665905384
C           -8.04523378166673       -2.98077261955780        0.19535514232755
C           -9.12171064751594       -1.46565209429040       -1.46750981865634
H           -8.42830869777374       -2.40187671503510        1.03294616781653
H           -8.76662731856780       -3.75333690409964       -0.05940318539903
H           -7.11362676347231       -3.45300292954973        0.49926709218769
O           -9.60965341808636       -0.52311372424310       -0.66084739239152
O           -9.70458971983997       -1.81286267452406       -2.45442355885352
