42
 energy: -62.486133513410 gnorm: 0.000480250554 xtb: 6.7.1 (edcfbbe)
N           -2.21158102233465       -2.50453837542429        0.27795219650774
H           -1.25863300665053       -2.84634835324529        0.31223744607319
H           -2.68913236315954       -3.01006249879479       -0.46364268122789
H           -3.69785247065873       -2.10807762497185        1.44553713831601
C           -2.24004059399837       -1.07033956506264       -0.01279148250311
H           -1.53254034610375       -0.58722688776150        0.67415941207406
C           -1.88531311633304       -0.70020018249262       -1.44961710803693
C           -3.62710168103951       -0.57289809493391        0.35794044193217
H           -2.57313746268634       -1.18414396298275       -2.13917412831101
H           -1.97827057124522        0.37243698666726       -1.57720315882294
H           -0.86788089088574       -1.00854609713964       -1.68244068993723
O           -4.25577178407449       -1.31838726823092        1.29625758598216
N           -4.08768281405302        0.46732023044761       -0.16895431789941
H           -6.25946553833953       -0.17848242038561        2.16607411773692
C           -5.40577188191614        0.97700578976425        0.15028224111405
H           -5.34664776520456        1.48342352738326        1.12538423666115
C           -5.78501022738497        1.98641622030654       -0.93812078386961
C           -6.44364021485674       -0.12271466676513        0.23342787050440
H           -4.96228815870380        2.69506584190324       -1.03807664803471
H           -5.87258436354657        1.42596106822667       -1.86805233785448
C           -7.09453406635129        2.73293832000808       -0.66663121884721
O           -6.89372796401231       -0.45644625501308        1.49402720931405
H           -7.87136242620911        2.00056950919197       -0.42117577693143
C           -6.96050836941078        3.71696216910705        0.49416730246247
C           -7.52636317023157        3.47634365303768       -1.92876368614606
H           -6.17183690202313        4.43799998752760        0.28890612439506
H           -7.89243058604104        4.25945054702357        0.63575445931013
H           -6.72717274146454        3.20873109350735        1.42679693762351
H           -7.67331596095255        2.77829472562722       -2.74862042875325
H           -8.46071828322682        4.00602712451253       -1.75877794581259
H           -6.76805588127643        4.19973450260739       -2.22095739928147
N           -6.85846443650458       -0.64256317202910       -0.82582873161420
H           -8.63797134761076       -0.60518948019478        1.03586836181262
C           -7.81946495720987       -1.70591120376381       -0.95351527331171
H           -7.78860108767409       -1.99866008806120       -2.00972068549486
C           -7.53594439031206       -2.93808822840734       -0.08256122505242
C           -9.25421771391023       -1.23045056877301       -0.67567234478305
H           -7.61226885795962       -2.70433528726895        0.97685814703674
H           -8.24801563789000       -3.72314484798058       -0.32475848700400
H           -6.52937507415526       -3.29776796727363       -0.28460263755147
O           -9.45543247738991       -0.64853452822666        0.50558310973158
O          -10.14606263314980       -1.39364991473967       -1.45861984031339
