42
 energy: -62.486133512712 gnorm: 0.000479755562 xtb: 6.7.1 (edcfbbe)
N           -1.09553872804733       -1.01054766344404        0.86566119992218
H           -0.10993432374944       -1.12175857657815        0.66155596450227
H           -1.43543481906795       -1.89701211803709        1.22840196330749
H           -2.28354215685250        0.23027079120939        1.75799964349330
C           -1.84457649639794       -0.64358207879396       -0.33448785736255
H           -1.29725197385871        0.17447893457350       -0.82142195819735
C           -2.04301927277702       -1.77958148366633       -1.33726246641646
C           -3.17103851266449       -0.06177952428702        0.13382637749059
H           -2.62439565092889       -2.58235966372821       -0.88791556508150
H           -2.57310930340782       -1.41136679121461       -2.20944372335735
H           -1.07938952382183       -2.17565803035853       -1.65181182919733
O           -3.15964660559076        0.43922277425430        1.37584396985649
N           -4.15906380434571       -0.05037202654575       -0.64632022751196
H           -5.14957612258813       -1.32405813532539       -1.64305503902280
C           -5.44204721044720        0.48484842363364       -0.23719815321860
H           -5.47505904392641        0.72002745947393        0.83141400897118
C           -5.70518291939749        1.75866937940508       -1.06289125673324
C           -6.46852128951026       -0.58438316670293       -0.54641567828886
H           -4.90249933335828        2.46393726209017       -0.83445951790957
H           -5.62300082238015        1.49363400264120       -2.11997947038399
C           -7.05713063572287        2.43090466711571       -0.81233976730311
O           -6.07925491201092       -1.52697189429461       -1.41563462310913
H           -7.85049975926110        1.70666030567392       -1.01701422143380
C           -7.19475222080348        2.91228172263565        0.62949934257243
C           -7.21975802624343        3.60811171100864       -1.77316689479122
H           -6.40028658857989        3.61537768870821        0.87227497826845
H           -8.14996616095230        3.41309410066645        0.76584352959090
H           -7.14666066087145        2.08029169181055        1.32614677330435
H           -7.14999090196283        3.27745158856350       -2.80690024338262
H           -8.18889516454202        4.07920528016042       -1.63028293203856
H           -6.44661716976027        4.35355960382700       -1.59756068051514
N           -7.61336170954918       -0.52380542726411       -0.02161899253133
H           -8.91930400649645        0.46301467231937        0.78148710430562
C           -8.63451986111591       -1.50205585730771       -0.32614025199482
H           -8.64964672997397       -1.76049972876145       -1.39287700866397
C           -8.44628972584509       -2.78606872853903        0.48915577686537
C           -9.98771844632949       -0.88215101089240        0.05105505339545
H           -8.37897771905246       -2.54603850362520        1.54845456101999
H           -9.29604272860842       -3.44280367190997        0.32539303675012
H           -7.53383140949353       -3.29004427884139        0.18023477467781
O           -9.88203414799081        0.26033503231037        0.71861390698590
O          -11.03882466455320       -1.39450456391666       -0.21772860398632
