42
 energy: -62.486133534262 gnorm: 0.000477641332 xtb: 6.7.1 (edcfbbe)
N           -0.78133275239118       -1.09709175613529       -0.77420328840877
H           -0.33065148773667       -1.92238068272474       -1.15021134929700
H           -0.41152717609978       -0.94301072868991        0.15973752893070
H           -1.13852194896435        0.71967379051844       -1.16114739824281
C           -2.23176087612958       -1.26194529027616       -0.71499577117195
H           -2.54231573544111       -1.72051310061994       -1.66349764077318
C           -2.70029169023811       -2.12734200103594        0.45755587716038
C           -2.86226395049786        0.15289040375640       -0.64808275706960
H           -2.39332830259423       -1.67277767338066        1.39835249114243
H           -3.78098633466861       -2.23083457872513        0.46794332639445
H           -2.26251890147117       -3.12175830216070        0.39016490214150
O           -1.99903356978625        1.14170196404226       -0.96176491630919
N           -4.02385714553269        0.39096840873810       -0.31535564178813
H           -4.68880355765006       -1.22884015773413       -1.24867756109089
C           -5.36819861252004        0.62518981933392       -0.00642368057227
H           -5.45758611480834        0.59280646668570        1.08626716012430
C           -5.75974885678354        2.04181984646338       -0.50093441957850
C           -6.26639908943845       -0.46623974423049       -0.58293112933305
H           -5.02644430593029        2.72215248419244       -0.06269501493044
H           -5.61592972412080        2.06238603716459       -1.58327425126290
C           -7.16819572028115        2.54243227734163       -0.17690444262540
O           -5.63692962798576       -1.45141854252732       -1.24747625992194
H           -7.88662948057860        1.95063338268793       -0.74802816261624
C           -7.49482222075201        2.42257368793840        1.30903096797586
C           -7.29389627572730        3.99899131458958       -0.62309459854299
H           -6.75787694118240        2.95824959855557        1.90414196923442
H           -8.47309421192745        2.85165015362364        1.51121721983838
H           -7.50854991468294        1.38214201107327        1.62271882969971
H           -7.05841747218699        4.10024403431030       -1.67977566783338
H           -8.30830178804098        4.35546527718746       -0.46367991914536
H           -6.61384412356947        4.63253243337236       -0.05767492254518
N           -7.51888054545308       -0.39124354307159       -0.47202751667683
H           -9.08672788212379        0.43337016297702        0.11585960809435
C           -8.38079621573656       -1.40079414778756       -1.04908670244455
H           -8.09746699843612       -1.63352832981883       -2.08295927664561
C           -8.37028287193949       -2.69836028562057       -0.23080636108295
C           -9.81397025630765       -0.85393126595968       -1.03081036322477
H           -8.61856993503821       -2.48588745898582        0.80730126514000
H           -9.10639565354983       -3.38511147057276       -0.63894756053491
H           -7.38604488681277       -3.15749789785841       -0.27487615118260
O           -9.97430677408488        0.19541678412867       -0.23352154760269
O          -10.71083452698564       -1.35112624022675       -1.65300600077997
