42
 energy: -62.486133508445 gnorm: 0.000480309137 xtb: 6.7.1 (edcfbbe)
N           -1.81284014677209       -1.36193160495440       -0.84798162770994
H           -1.23041466431893       -2.18859054430775       -0.79852621155591
H           -1.21910075713793       -0.55790448214738       -0.66392547173243
H           -3.13143288352605       -0.61083647413479       -1.99582769558729
C           -2.89093191257307       -1.41859042118432        0.13980390802052
H           -3.31710545289431       -2.42894113967369        0.10447352787039
C           -2.46467874623659       -1.10319439960766        1.57080573221504
C           -3.98926448295983       -0.47462214125247       -0.33261650168974
H           -2.00216056412979       -0.11896163321767        1.61565736201239
H           -3.34097555022974       -1.09940614858068        2.20961574497341
H           -1.75479845990025       -1.84512727548450        1.93067610208870
O           -3.94042876243278       -0.18028255724863       -1.64812407746958
N           -4.86151537332463       -0.09501101531505        0.48671158617259
H           -6.83417881562685        0.80031203106061       -2.20658837703302
C           -5.96696716336710        0.77355756001965        0.12242182534495
H           -6.38326015959048        1.08615488969695        1.08860899216168
C           -5.57794942630793        2.02134059596753       -0.67680897749171
C           -7.01280779397551       -0.11471940429564       -0.52977845573363
H           -4.71327971977473        2.46700761063776       -0.17873708360910
H           -5.24374237795391        1.74198035153072       -1.68020725752047
C           -6.70240317184127        3.06587668849184       -0.75838871353268
O           -7.33867441481259        0.07153367878758       -1.82255508514840
H           -7.65676617381333        2.56226372089816       -0.95299437429295
C           -6.83596073668236        3.83687218282617        0.55305805125977
C           -6.42509728942929        4.03859816873781       -1.90467953878012
H           -5.91519680576141        4.37352383137639        0.77224364025794
H           -7.64527381811138        4.56001542291369        0.48371930570902
H           -7.05047923681182        3.16819761888025        1.38253719852452
H           -6.38681814966557        3.52230994243763       -2.86228602437527
H           -7.20545548124998        4.79383304342631       -1.95871521024127
H           -5.47303661188368        4.54188317533249       -1.74944872017131
N           -7.48454940211408       -1.05502719121138        0.16251010096844
H           -7.69731757912446       -1.84565475656550        1.76890457466444
C           -8.41853480282834       -2.01817601039511       -0.37122293152987
H           -9.23755767653071       -1.53404946209405       -0.91809776093409
C           -7.73289588565111       -3.02752242774514       -1.29941268209575
C           -9.00343505277183       -2.78397598935167        0.82608044036017
H           -6.88513171679285       -3.48020176703967       -0.78854407308422
H           -8.44269791210345       -3.80388144022435       -1.57077760985875
H           -7.38043825266636       -2.52775677673499       -2.19800845778495
O           -8.38451670164365       -2.52613024968108        1.97025983451179
O           -9.91612118028675       -3.55679100478269        0.72510031289945
