42
 energy: -62.486133513410 gnorm: 0.000479673894 xtb: 6.7.1 (edcfbbe)
N           -0.81736753109670       -0.33588584456676        0.02256763231505
H            0.00920995740591       -0.76515015588728       -0.37515042108100
H           -0.79035830652545       -0.49349222982288        1.02636394010459
H           -1.79728797472529        1.30833126174014       -0.02891791078864
C           -2.03392851369440       -0.92332855916027       -0.53634253408757
H           -1.90607752924896       -0.95238785683026       -1.62703671735200
C           -2.35703440744859       -2.32678001008243       -0.02892311460139
C           -3.17296733660713        0.05307764333377       -0.25682399793375
H           -2.45391699619362       -2.31831558568519        1.05488688665877
H           -3.29983956932783       -2.65936644400892       -0.44993473973067
H           -1.56982128647808       -3.02340434923473       -0.31024580907375
O           -2.77689316956007        1.31674212198062       -0.03526647894520
N           -4.35103802044075       -0.38205738894027       -0.24427255968848
H           -5.56129795718800       -0.77877496506910       -2.09949766253750
C           -5.54396145503088        0.41781416635118       -0.06631086630504
H           -5.70902422801187        0.57447334695495        1.00391202413391
C           -5.53468937732252        1.77390202568643       -0.79738692524992
C           -6.67107706649119       -0.43337315345206       -0.61031420682008
H           -4.77413416330362        2.40937108653337       -0.34375371648311
H           -5.24440899876149        1.60233024421227       -1.83910828548776
C           -6.88355805111118        2.50135153277314       -0.77048744241820
O           -6.47963402066296       -0.94041015218223       -1.84115342682576
H           -7.64957495662560        1.84767149686710       -1.20187803636087
C           -7.30127672174976        2.86221250783821        0.65213797960642
C           -6.79058034114786        3.76476092199346       -1.62502421917625
H           -6.53295369990620        3.46671336454194        1.13021636068047
H           -8.22687799705945        3.43243005179170        0.63644535798864
H           -7.46738723583373        1.96902077655762        1.24753507364296
H           -6.51772170843342        3.52191730280142       -2.64975278628849
H           -7.74628923799618        4.28280202241045       -1.64058174160386
H           -6.03997821398561        4.44071691015722       -1.22049201708341
N           -7.68834094725619       -0.66512244103773        0.09471408983770
H           -8.78711656623935       -0.17265362790827        1.44996180836234
C           -8.78155916509553       -1.47606507354027       -0.39761213756334
H           -8.99578357697712       -1.27963787371847       -1.45552256409529
C           -8.49098715315576       -2.97037760449995       -0.22072543455568
C          -10.02354097145719       -1.12271747083705        0.43323985979331
H           -8.24145551802900       -3.17927294211585        0.81749327386418
H           -9.37179090444979       -3.54230359750055       -0.49865904030026
H           -7.65473848467682       -3.26123507242393       -0.85130124043725
O           -9.75399217715392       -0.36165679335413        1.48745663684724
O          -11.12513967862596       -1.51389542729682        0.16448013025970
