42
 energy: -62.486133523658 gnorm: 0.000478360597 xtb: 6.7.1 (edcfbbe)
N           -1.33271893378485       -0.36454988382149       -1.89087627346674
H           -0.66406247557711       -0.98220912923337       -2.33431048836509
H           -0.81040553736811        0.30921078601283       -1.33722554637201
H           -2.87886311202691        0.65998330469922       -2.34847417142076
C           -2.24987020710548       -1.10978218371870       -1.03112172467395
H           -2.59486742448875       -1.98217313439893       -1.60156016349758
C           -1.64026994991441       -1.58036012200994        0.28777452678048
C           -3.47865903484379       -0.22790509799194       -0.81164927638224
H           -1.30299029363929       -0.72573212274982        0.87089704461540
H           -2.38590663635921       -2.11554683330628        0.86539179422575
H           -0.79398162108464       -2.23847159087080        0.10023804166511
O           -3.65187834695077        0.71205718517089       -1.74875055937803
N           -4.21008367638141       -0.46638546975966        0.18163911118618
H           -5.46136427258986       -2.03391191581892        1.26834124807395
C           -5.45770743924176        0.19685389975588        0.51600257884053
H           -5.42672675165753        0.31723459996113        1.60950025412028
C           -5.75742561811861        1.54619972041986       -0.13734773314772
C           -6.50160398450599       -0.85753892800599        0.20494801885030
H           -4.87858190606812        2.18473730135721       -0.03152005575128
H           -5.92744576719926        1.38415683647235       -1.20088514062277
C           -6.97239788756301        2.25281310824867        0.47715020368759
O           -6.32573433856133       -2.03782565355586        0.83295434203661
H           -7.76836984914794        1.51585078087225        0.61946889660482
C           -6.63285848811856        2.87725200782151        1.82942974233453
C           -7.47652590977826        3.33329969843593       -0.47792124047562
H           -5.85189755171503        3.62649436407624        1.71475793052019
H           -7.51002041902221        3.36159656510662        2.25252665209018
H           -6.28844545038796        2.12907170488483        2.53937805667135
H           -7.78667774453406        2.89990082310069       -1.42552163938181
H           -8.32740981862189        3.85581008656566       -0.04679301198280
H           -6.69135285503870        4.06079325330835       -0.67309294713344
N           -7.39855339980481       -0.64459834862946       -0.64901939956080
H           -8.10489128305828        0.41091563188244       -1.92540068026326
C           -8.36311899017699       -1.64887345193132       -1.03062339381784
H           -7.88852844467585       -2.62083449550504       -1.21614511351913
C           -9.45321768594471       -1.82675982040442        0.03189276466178
C           -9.02607963865292       -1.15698649631841       -2.32705696781751
H           -9.91394945350922       -0.86669777764909        0.25671891593154
H          -10.21299142677633       -2.50612519194197       -0.34398620589648
H           -9.01955897612658       -2.23507996750188        0.94131690005839
O           -8.74135659964558        0.10637184456384       -2.61640673811822
O           -9.74684206552349       -1.84428167255430       -2.99570342696810
