42
 energy: -62.486133503915 gnorm: 0.000480936709 xtb: 6.7.1 (edcfbbe)
N           -2.31126282067239       -2.06021135029290        1.25758086571117
H           -2.50766247025893       -1.99083285051707        2.25052506069921
H           -1.34684834002234       -2.34930592723301        1.14652591078421
H           -4.00271049462478       -2.51827617517201        0.56922153806561
C           -2.55829161062848       -0.78620613118155        0.58728263737754
H           -2.19991852288130        0.08849497354676        1.14665596351571
C           -1.90519527999882       -0.79761318315380       -0.79454557772425
C           -4.07298435559949       -0.65711018339221        0.41018022748029
H           -2.25917444229076       -1.65179098633023       -1.36739431434196
H           -2.16101476107218        0.11446955317905       -1.32462842368394
H           -0.82274223340043       -0.86120246046602       -0.70339399575198
O           -4.69226821010060       -1.84796078993456        0.35902164427096
N           -4.52324925944405        0.49816258247445        0.25625174806462
H           -8.08114902520641        1.88171774156404        0.02701781307528
C           -5.83017901667557        1.05805643854222        0.06983644977750
H           -5.87672349979295        1.88794262968740        0.79010648831048
C           -5.76290554978952        1.63631424493423       -1.37401322206162
C           -7.09035377964406        0.23799200379524        0.25800770139211
H           -4.73741793781489        1.99429293662032       -1.49129973485731
H           -5.89653861321229        0.79807289707247       -2.06213577496339
C           -6.70684418436199        2.77457410486896       -1.78303104492394
O           -8.25140475901405        0.94093662328090        0.14870133388692
H           -7.74105068563432        2.41461259980945       -1.82422436979166
C           -6.61699946548826        3.97516103460282       -0.84124845606312
C           -6.33632840547222        3.21546477656881       -3.20089424193353
H           -5.58861155495998        4.32454599401961       -0.78153825989077
H           -7.23338140934705        4.78994702563111       -1.21516796741242
H           -6.95212253541156        3.74364035016882        0.16852946836885
H           -6.39652310380796        2.37837311597327       -3.89223857237248
H           -7.01351297284694        3.99320818446865       -3.54603921602809
H           -5.32229833198897        3.60815255093199       -3.22441253718474
N           -7.08747932564631       -0.96904844739939        0.59813201230178
H           -6.19712135410493       -2.50035302110954        1.27594305861644
C           -8.31213840596918       -1.69094916830310        0.84049816724032
H           -9.07522860784213       -1.06687199363760        1.32393809964492
C           -8.88456037738310       -2.25327608219170       -0.46583301456951
C           -7.97884347956750       -2.87116694348950        1.76150316591681
H           -8.12428359175980       -2.83739284899396       -0.98051954976336
H           -9.73660886637816       -2.88938764550868       -0.24253251777637
H           -9.20232211766832       -1.43751426319123       -1.11088113515426
O           -6.68799122845896       -3.15763845756951        1.82884988179628
O           -8.82194627103433       -3.49204902553467        2.35059778748521
