42
 energy: -62.486133525729 gnorm: 0.000478796952 xtb: 6.7.1 (edcfbbe)
N           -0.73505754120168       -0.15428152357439       -0.02602447664080
H            0.12073588111193       -0.45081633846786       -0.47898255367125
H           -0.68422910097256       -0.44583037000716        0.94638736521264
H           -1.83380563368151        1.40046638307751        0.13547583908875
C           -1.90493470924581       -0.75640159277511       -0.66335005228092
H           -1.78051056317973       -0.63615080837094       -1.74800997282852
C           -2.11043210154403       -2.23495896866309       -0.33890569658334
C           -3.11180580569547        0.08923641060252       -0.26652354974337
H           -2.26659383894749       -2.36511933937046        0.72991794360080
H           -2.98333524200946       -2.61576220689919       -0.85833648325818
H           -1.23836316940240       -2.81084226884820       -0.64283091057960
O           -2.81165845758572        1.33473398884913        0.12426604077727
N           -4.25770559309106       -0.42608679039315       -0.31117594940511
H           -5.23724858376002       -1.46894170464808       -1.53603621026404
C           -5.50199745232147        0.26325614992919       -0.04503082372709
H           -5.61862179729718        0.42057159740640        1.03110546011232
C           -5.61550127237039        1.61683408425966       -0.77749016696508
C           -6.59008319147930       -0.66996871960885       -0.54190905163644
H           -4.80693886627619        2.25809170755676       -0.42554591164478
H           -5.45945338455139        1.43307563603085       -1.84484295461743
C           -6.94688701107087        2.34833545160796       -0.58483009197123
O           -6.21211982606785       -1.53919761890479       -1.48700645544547
H           -7.76182035161854        1.69476458575708       -0.90832519602429
C           -7.17796902358779        2.73059324840409        0.87460548689223
C           -6.96071185446483        3.60139730563591       -1.45969428670972
H           -6.36985970416725        3.36571789389033        1.23228098318603
H           -8.11331172597555        3.27557435592517        0.97370846244837
H           -7.23334979790174        1.84864624776746        1.50658303752760
H           -6.82297022944028        3.34408952155489       -2.50753459575882
H           -7.91015375706407        4.12094151586363       -1.35854183233580
H           -6.16372266619703        4.28112857674913       -1.16472819775157
N           -7.75165590196230       -0.59521086306336       -0.05699583725908
H           -9.02424397002610        0.39422534972434        0.78703933466802
C           -8.82264516602964       -1.44743103439395       -0.52630866934427
H           -8.79715850832609       -1.57886968222948       -1.61562684151105
C           -8.77141650781842       -2.82736362378679        0.13838976633630
C          -10.14658726096082       -0.77132989013780       -0.14182908422111
H           -8.75551217463876       -2.71697674031583        1.22079369844358
H           -9.65005737107127       -3.39763642791437       -0.14942487638563
H           -7.87559360644787       -3.35609446393322       -0.17745455907610
O           -9.99491773414006        0.27670596236503        0.65901693072177
O          -11.21598668738432       -1.16514086211348       -0.51734005228716
