42
 energy: -62.486123747105 gnorm: 0.000704073526 xtb: 6.7.1 (edcfbbe)
N           -1.54981275467307       -0.26203800145836        0.66870208777620
H           -0.83268620162086       -0.82947539831120        1.10812398675699
H           -2.21231862005543        0.02676786573120        1.38076985563671
H           -3.07634264824245       -0.51566850767677       -2.58187366571583
C           -2.25195372010556       -1.03031080321072       -0.34037358342889
H           -1.59355677544978       -1.09365271243064       -1.22107611895776
C           -2.63407320717221       -2.45601004610457        0.09935835298310
C           -3.52679058054600       -0.30342514564151       -0.70682101111968
H           -3.29202533830020       -2.40122856205414        0.96327129635505
H           -3.15087958230883       -2.98411959872453       -0.69897669451990
H           -1.73966623407588       -3.01646234306559        0.36397973521442
O           -3.80403050517688       -0.18022256925973       -2.04396286468713
N           -4.25980457747998        0.10378742037495        0.22175113792999
H           -5.74910310648296       -0.04872783041761       -2.22099319888836
C           -5.53230302680981        0.77802368101968        0.08020177843752
H           -5.84113032183898        0.99369825284411        1.10795828966365
C           -5.43809737619308        2.08965581617644       -0.71401110236841
C           -6.56945256490442       -0.16242711740158       -0.49835772348187
H           -4.74137319068882        2.74551443599065       -0.18716607010198
H           -5.01257473844860        1.89432396356232       -1.70183775629304
C           -6.78644278807840        2.80039333102870       -0.88219597487436
O           -6.53909160441696       -0.43539683954353       -1.81228059257253
H           -7.48313272770293        2.12445791405188       -1.39116438927727
C           -7.39518477911455        3.19303876499056        0.46169669565852
C           -6.59502933845811        4.03997316362688       -1.75516305749900
H           -6.68708283151397        3.77998772441265        1.04279897995351
H           -8.28860765687477        3.79266245874954        0.30402714865066
H           -7.67782159146995        2.31474714830654        1.03564544952935
H           -6.18097910177815        3.77347504267853       -2.72542969454934
H           -7.54629296930348        4.54076403884575       -1.91704750125502
H           -5.91654340656927        4.74031631383024       -1.27263963503594
N           -7.40219726134113       -0.67845837619235        0.29537490989001
H           -8.22968418664392       -0.69675041279031        1.90653503139103
C           -8.41507494346901       -1.60531277851951       -0.15894155850123
H           -8.89950172028319       -1.25900154013029       -1.08067124885729
C           -7.83981616713962       -3.00533083899190       -0.39983130224059
C           -9.47421802105561       -1.69964840773154        0.94981096659125
H           -7.30335171416035       -3.34261020515121        0.48491076498137
H           -8.65285380116668       -3.69467873973837       -0.60887743579669
H           -7.15593217630621       -2.98567784202622       -1.24457880569606
O           -9.11236595501602       -1.10146444619719        2.07799626248117
O          -10.51701145468548       -2.27551378654073        0.81029349515230
