42
 energy: -62.486133481297 gnorm: 0.000481576457 xtb: 6.7.1 (edcfbbe)
N           -0.92129129110379       -0.50866625598313       -0.35116148614094
H           -0.14278117084729       -0.79957581284223       -0.93045975507669
H           -0.85241051426294       -1.01539748641185        0.52747188376346
H           -1.84132917234261        1.11254744846507        0.20770562519199
C           -2.19604756391003       -0.82111079173789       -0.99947796024079
H           -2.13509075703398       -0.44459970055145       -2.02894614798839
C           -2.56266908228950       -2.30165675082325       -1.02808947952425
C           -3.26980265919410        0.00347717038604       -0.30679929818560
H           -2.56260796033066       -2.70625156715143       -0.01806179921257
H           -3.56139831114874       -2.40801376761644       -1.43715967433892
H           -1.85365012484847       -2.86085457968519       -1.63516775316041
O           -2.81623595967107        1.13270743543069        0.28099809430493
N           -4.45836627714828       -0.39417096760034       -0.32246985169806
H           -7.41030808601686        0.25972971389255        1.80086188449830
C           -5.54213175257424        0.36090529649193        0.24924361777975
H           -5.35183563699590        0.54962424351295        1.31785042684163
C           -5.72504266234555        1.70628333495110       -0.48835662791514
C           -6.80205614922614       -0.45424127736418        0.08577125490918
H           -4.78919509623984        2.26094792058750       -0.40725730855791
H           -5.89024596038968        1.46159950697270       -1.53938837596898
C           -6.87286505546312        2.58604161525889        0.01774612006068
O           -7.73745937359828       -0.32362958306282        1.10559780459711
H           -7.80029412591332        2.00331116390278        0.03689248663846
C           -6.59356859032024        3.13793070777338        1.41555653851036
C           -7.08023864302688        3.74551282160995       -0.95579931845895
H           -5.69351179876002        3.74886772802291        1.40150097156155
H           -7.42310092844006        3.75744291995559        1.74938253782264
H           -6.44867969118848        2.34809778531284        2.15052717691322
H           -7.32686883001223        3.37227747056322       -1.94650339628857
H           -7.89340598375648        4.38419333361089       -0.61881968635493
H           -6.17670131416590        4.34716956836710       -1.02795387792012
N           -6.95807515151257       -1.16755382681670       -0.92407734539154
H           -9.19329443203082       -0.29679747900974        0.03431857906396
C           -8.08171361838019       -2.00666425711606       -1.24414113760962
H           -7.77393331884702       -2.57876958627776       -2.12701360581351
C           -8.48461921506295       -2.98274060580485       -0.12969108491477
C           -9.31903410569044       -1.19515791731616       -1.65827986807199
H           -8.85585150678429       -2.45709952682965        0.74743213137209
H           -9.26023549667836       -3.65089940648355       -0.49585215737657
H           -7.61746006877697       -3.57116241388955        0.16111679015538
O           -9.74958172491503       -0.30089259973838       -0.76789092083464
O           -9.88120207913155       -1.36478724552821       -2.70222098246637
