42
 energy: -62.486133505379 gnorm: 0.000481186414 xtb: 6.7.1 (edcfbbe)
N           -1.02295400571167       -0.50456089756818        0.36756606837693
H           -0.17656389434850       -0.96108612826535        0.04931750888463
H           -1.13948129819525       -0.73023448505388        1.35189421695157
H           -1.90746695424941        1.20655299836800        0.30635020085226
C           -2.18499710611670       -0.97433446873535       -0.38553680889495
H           -1.92127730918011       -0.92084638724340       -1.45047784492863
C           -2.63641332610066       -2.39285565479938       -0.04872194575131
C           -3.30107430992828        0.03856288237406       -0.16234044454476
H           -2.86053524128891       -2.47062584408091        1.01276262997438
H           -3.53878875391099       -2.62652714754766       -0.60268509136354
H           -1.85845393338327       -3.11031639620482       -0.30219049283547
O           -2.87671812769445        1.26686508172265        0.18397744848241
N           -4.49471555597854       -0.32344767531141       -0.30574416758727
H           -6.14387134590251       -0.11772560589007       -2.42273740949658
C           -5.63095524913027        0.56554522780495       -0.16701237286434
H           -5.78026867687768        0.77911863744076        0.89715048554283
C           -5.50891023722877        1.88706204635476       -0.94352879795999
C           -6.81046920175750       -0.25539394683471       -0.64306444460999
H           -4.74393915651759        2.49609355181067       -0.46116849733061
H           -5.15697633384940        1.67763995926632       -1.96008687791552
C           -6.81745828527611        2.68321944017525       -1.01344550801833
O           -6.90088143560927       -0.50162720504733       -1.96350910913559
H           -7.58507746689530        2.07497687124516       -1.50551453421031
C           -7.32182415464451        3.05629393355974        0.37839079754131
C           -6.59384306022347        3.94307448327241       -1.84895653464243
H           -6.54388627071753        3.57043073755819        0.93872306643465
H           -8.18099030415157        3.71799696714798        0.29889088700866
H           -7.62775270126288        2.17239068119498        0.93158202182067
H           -6.24891249515444        3.69092441894249       -2.84972566398366
H           -7.51799908676712        4.50834236885530       -1.93990209936214
H           -5.84702809712103        4.57943959857136       -1.37893518419416
N           -7.60042790945510       -0.74446560775840        0.20639704297752
H           -8.28041416795923       -0.77185827511355        1.88194028596293
C           -8.70357291309246       -1.59830449602769       -0.17713909911889
H           -9.23635645200775       -1.21140399387905       -1.05455736092774
C           -8.23200766377518       -3.02644951243087       -0.47327705905955
C           -9.67398771995115       -1.64689986263048        1.01207874493687
H           -7.65664780965268       -3.40735997318236        0.36802252225049
H           -9.09675576069420       -3.66413159991253       -0.63381103591669
H           -7.60570519169789       -3.03218541663378       -1.36144670627111
O           -9.17280093961884       -1.11714247788017        2.12182911713076
O          -10.76703135128152       -2.13677265969200        0.94757710056335
