42
 energy: -62.486132311607 gnorm: 0.000617974044 xtb: 6.7.1 (edcfbbe)
N           -1.99804636967751       -1.69321590504544        1.59376542476013
H           -1.87196100932376       -1.20629869947291        2.47504938064376
H           -1.12818762711416       -2.15889538787227        1.36438338432652
H           -3.85793916223768       -2.12370594523476        1.61043728773232
C           -2.39031816987759       -0.76414859875499        0.53676162653348
H           -1.85097385640824        0.19296348942695        0.55946723564430
C           -2.18719094545527       -1.42285917654359       -0.82865272496013
C           -3.88135874640782       -0.48430948530433        0.70569879497971
H           -2.72572644383358       -2.36735804888853       -0.87164966251769
H           -2.56090519211510       -0.76629308175534       -1.60852624948651
H           -1.13047246042590       -1.61363032088461       -1.00477155262572
O           -4.53976822357806       -1.47414138586710        1.32884173303961
N           -4.31071381748086        0.61295413488586        0.28619019965802
H           -7.77195621313552        2.02691031470401        0.81997016116122
C           -5.63066645800253        1.15588168613030        0.15954689589201
H           -5.63363143573439        2.04460967627618        0.80824861681483
C           -5.71056308572990        1.61384478984794       -1.32248053335316
C           -6.87269549286428        0.34736672205684        0.46760783903943
H           -4.75197422133477        2.08219955907287       -1.55217232335709
H           -5.79084902133643        0.70835282511635       -1.92760214405195
C           -6.84247271168805        2.57479154212099       -1.69945688119955
O           -7.97406432312229        1.08456641420277        0.78188943170825
H           -7.80645498511365        2.13922276399785       -1.41631489449231
C           -6.68305211475561        3.93815176651581       -1.02706831530215
C           -6.85213260145433        2.75742538032370       -3.21747046842139
H           -5.74391776661045        4.39539319527578       -1.33114365682331
H           -7.49550188137920        4.59964093594770       -1.31979832622935
H           -6.68381156180881        3.86898284696627        0.05927236241586
H           -6.99784131199254        1.80358785710511       -3.71867415786966
H           -7.65682334617942        3.42597927181216       -3.51450250528308
H           -5.90961754874256        3.18287227604760       -3.55488240361874
N           -6.90168459847055       -0.90745565583709        0.45663230756061
H           -6.00530951811351       -2.53809337427823        0.70962935548599
C           -8.12994780714154       -1.62937835535114        0.69905753048003
H           -8.63791174336393       -1.26186347695121        1.60137206136557
C           -9.09885841235019       -1.52379611639560       -0.48391086356610
C           -7.78330887903946       -3.10940717089946        0.91470327584234
H           -8.58929380104814       -1.80389633816307       -1.40380952267078
H           -9.93266629972653       -2.20046228213245       -0.31942184273323
H           -9.47040462221113       -0.50675860087105       -0.57707644738507
O           -6.49238656599148       -3.38896548264036        0.83325644287543
O           -8.62283093888222       -3.94279009214706        1.12653931672754
