42
 energy: -62.486133510986 gnorm: 0.000480104651 xtb: 6.7.1 (edcfbbe)
N           -0.74881870180876       -0.08988400109750       -0.19088857676706
H            0.09343022847923       -0.19410490403169       -0.74306803523003
H           -0.62763954762532       -0.63708475066511        0.65702236368764
H           -1.92203197474569        1.30092394018537        0.44771524192686
C           -1.92113892449679       -0.56168904194228       -0.92654817081043
H           -1.85718841931452       -0.15279293253456       -1.94282708957251
C           -2.05870707940963       -2.08071076225997       -1.00628440114936
C           -3.14318733418220        0.07724186168297       -0.28275307242260
H           -2.08404523289353       -2.50955749840804       -0.00579581029215
H           -2.98334906068802       -2.33171139658616       -1.51499816381820
H           -1.22041997553688       -2.51028668056459       -1.55078953809942
O           -2.89333719065047        1.18034229656978        0.44027549210425
N           -4.28090571871239       -0.42674229548909       -0.46885803689029
H           -5.24620305866182       -2.07899487541689        0.76121239931546
C           -5.46990700010350        0.17892472920462        0.10537513312031
H           -5.29666022759451        0.41954479524623        1.16612248600036
C           -5.86420775711575        1.45768342631054       -0.64310128726915
C           -6.53294492174937       -0.89533814009853        0.02603504173862
H           -4.97408729164562        2.08228433404214       -0.73717549992724
H           -6.18440842941276        1.16717035117007       -1.64438216442981
C           -6.96962519536741        2.26296363354452        0.04945246904905
O           -6.19742596373001       -2.07566165563063        0.58788219869918
H           -7.74381100692530        1.56955617830582        0.38995139424788
C           -6.42481087030484        3.02504939497030        1.25585254486976
C           -7.59343942795034        3.24291855117500       -0.94267181877486
H           -5.66269579084177        3.73524949211944        0.94173107180006
H           -7.22358347462946        3.57455931860360        1.74852950078987
H           -5.98129882249790        2.35075720038372        1.98404542488038
H           -8.03766150903823        2.71681117671809       -1.78399011662589
H           -8.37106429444789        3.82896359398073       -0.45862392599768
H           -6.83779539203687        3.92684915308253       -1.32381046321658
N           -7.60824955932014       -0.70340852699462       -0.59636948056628
H           -8.61098692861949        0.32581857313664       -1.68156896803259
C           -8.61556562770751       -1.72861648782436       -0.73614379847474
H           -8.17890271046857       -2.68855750764044       -1.03976957265140
C           -9.40733408105657       -1.93616445624490        0.55968721058544
C           -9.58719341098056       -1.25358809384073       -1.82807657186172
H           -9.81725362573905       -0.98773778261052        0.90178515534286
H          -10.22308156226817       -2.62917560018825        0.37407768638478
H           -8.75603918859455       -2.34080269237149        1.33027000521532
O           -9.39339528498605        0.00766166436272       -2.19326165844607
O          -10.44921991830764       -1.95068943576976       -2.28633157031943
