42
 energy: -62.486133511735 gnorm: 0.000479969854 xtb: 6.7.1 (edcfbbe)
N           -2.56074927644154       -2.26432941439441        1.21094952749053
H           -2.74536401603411       -2.02739318523666        2.18020341514873
H           -1.64390563855359       -2.69196013888386        1.16231104829515
H           -4.35494984859414       -2.54849221500549        0.57797792570496
C           -2.62731053898098       -1.07474317277168        0.36620732679713
H           -2.11774783402985       -0.19677089134646        0.78652764979804
C           -2.03476464956945       -1.38758175187455       -1.00833188292568
C           -4.10332214097988       -0.73545466265187        0.19348498034639
H           -2.54184581097661       -2.24391758382604       -1.44784375148159
H           -2.15632171117285       -0.52836067138843       -1.66095447751928
H           -0.97480598287277       -1.61675952606052       -0.92122038509227
O           -4.91623267173392       -1.79904311624383        0.28609757111653
N           -4.40370066442440        0.45668443439863       -0.05143767409717
H           -6.99133627219510        0.35494220611652       -2.24835043141357
C           -5.71289581290038        1.03725989810516       -0.23518147235105
H           -5.89101522511787        1.60555135181992        0.68752666112327
C           -5.60006778773460        2.03016961836880       -1.40154049078841
C           -6.87149318044172        0.05997137749411       -0.35465918019836
H           -4.69312677618625        2.61136945728384       -1.22783121637385
H           -5.43481350705433        1.48129721550443       -2.33566378057432
C           -6.79503036098116        2.98346949630064       -1.54395821613825
O           -7.42935821303740       -0.16354838592714       -1.56147899141176
H           -7.73081526164697        2.41559401233746       -1.48462597340868
C           -6.80520873309967        4.02567562074186       -0.42809143464708
C           -6.73811068980965        3.67956648803101       -2.90368607175712
H           -5.88650560868897        4.60783529188194       -0.44502509086547
H           -7.64459561277128        4.70505334616956       -0.55666152712652
H           -6.89903764546968        3.55640372244250        0.54763596401239
H           -6.78258197733967        2.95914505070514       -3.71844853430710
H           -7.57349323728776        4.36659479711994       -3.01395009636805
H           -5.81428495774067        4.24611756733450       -2.99808655817522
N           -7.23986972662279       -0.52230563439396        0.69831109616508
H           -6.74414196871773       -0.98623785664657        2.32822313955513
C           -8.28072196031206       -1.51808152896885        0.77536800943773
H           -9.26118336900833       -1.05177759196348        0.61349895946517
C           -8.12387477452696       -2.69555598858569       -0.19226130405127
C           -8.24653514546114       -2.06650418591989        2.21378496043516
H           -7.10904604430588       -3.08139674292374       -0.13102513479066
H           -8.82486810458203       -3.47671711649145        0.08913298981953
H           -8.32142729210454       -2.38046084137346       -1.21254089583018
O           -7.22263441809522       -1.61409888164421        2.92592907033135
O           -9.05709686623845       -2.84323542602835        2.63861913470228
