42
 energy: -62.486133500334 gnorm: 0.000482306327 xtb: 6.7.1 (edcfbbe)
N           -1.84196490705750       -2.23027485147772        0.20499663958380
H           -1.38622914774193       -1.93504620336780        1.06190019450434
H           -1.16194762259995       -2.73538338186375       -0.35117327277847
H           -3.69199793961412       -2.44227602355322        0.71737723511234
C           -2.35634126574824       -1.07730476862428       -0.53342511939979
H           -1.68966306100242       -0.20478556194420       -0.51723755428503
C           -2.63217669971039       -1.47149326317786       -1.98474397238345
C           -3.68384812896322       -0.68351465955125        0.08999891624572
H           -3.30360852283547       -2.32588061695332       -2.01732866468875
H           -3.10178264007166       -0.63962472517004       -2.49937460382644
H           -1.70458137523168       -1.72932493891545       -2.49201191995773
O           -4.30252358338781       -1.67584399021363        0.75181190018400
N           -4.08410431610027        0.49915897742399       -0.04530360997086
H           -7.28688986964945        0.55707634084303        1.85358275160041
C           -5.39358716318779        0.94169496013625        0.36659269114177
H           -5.33673584843014        1.23655411667337        1.42617913960558
C           -5.72878241258663        2.17059884334014       -0.49950735451108
C           -6.47742767479986       -0.09794504972276        0.20326093891425
H           -4.88065538521462        2.85299266347293       -0.43409598219051
H           -5.79400116000549        1.81605948923444       -1.52884746717277
C           -7.01972079191362        2.90648019369697       -0.12767001813425
O           -7.47881186867458       -0.08393485303646        1.15884654950296
H           -7.84357286931049        2.18653466204091       -0.06777303101283
C           -6.89504286632985        3.63651277226614        1.20939616504676
C           -7.36267681259151        3.90931104271659       -1.22797911481530
H           -6.10526092755464        4.38261259267398        1.15482437194383
H           -7.82710388297302        4.14260556768549        1.45125074098827
H           -6.66028327161650        2.95823015902324        2.02748634001541
H           -7.51604875373994        3.39831061373785       -2.17503769123138
H           -8.27254334571668        4.45106427349780       -0.98029685462969
H           -6.55573303193639        4.62831047848174       -1.35047357566659
N           -6.44250365571514       -0.87687182711832       -0.77197444864371
H           -8.85062885040925       -0.38764288787324        0.01659299802358
C           -7.36903302988052       -1.93311831006329       -1.08237799015814
H           -6.90780869619071       -2.48793158603635       -1.90805458153272
C           -7.63871627785424       -2.89539586077430        0.08252026507924
C           -8.71024862549395       -1.40189920425210       -1.60794915260442
H           -8.19959671001672       -2.41117534484642        0.87910118312786
H           -8.20313746901389       -3.75231810211091       -0.27679528780565
H           -6.68872034823763       -3.23455591582782        0.48931583537636
O           -9.34965956212074       -0.54968446123014       -0.80649792874583
O           -9.17049086080059       -1.74290756150736       -2.66017032073105
