42
 energy: -62.486133515602 gnorm: 0.000479829229 xtb: 6.7.1 (edcfbbe)
N           -1.32057426318615       -0.76751863758507       -1.54215645314588
H           -0.71415264075858       -1.51182516288606       -1.86429968832918
H           -0.75989878118480       -0.13895755545642       -0.97323025039168
H           -2.63101344829878        0.45394955765398       -2.21167367778562
C           -2.42751392606639       -1.30013540733384       -0.74958891553642
H           -2.84698295501426       -2.14872811133755       -1.30480872038649
C           -2.03860668108673       -1.76021488838817        0.65330799851439
C           -3.52169919590709       -0.23337138415299       -0.71331391280054
H           -1.59935954580829       -0.93437948933958        1.20954345620651
H           -2.92569591295443       -2.09444622307780        1.17956728961623
H           -1.31923270750798       -2.57533426421596        0.60201321760893
O           -3.43693161734664        0.67049831172308       -1.69932508336417
N           -4.38753024786497       -0.31219845305377        0.19166951977506
H           -6.79821334703329       -0.50275814327927        2.18862555277322
C           -5.53653458190877        0.54322272670986        0.37816328812960
H           -5.46865717070164        0.88677601000525        1.42196111090044
C           -5.71544790657428        1.75065786229264       -0.54858298619254
C           -6.72829743690264       -0.38614781712770        0.24922820990657
H           -4.80996588452862        2.35760510541946       -0.52596624298960
H           -5.85045058101029        1.36794378835990       -1.55925006802618
C           -6.92300588661614        2.61509606121922       -0.16589889348948
O           -7.31382874056669       -0.79970966832039        1.42916495873973
H           -7.78195826424855        1.95985403982696        0.01941347424011
C           -6.65458055153158        3.44397570819941        1.08933615850109
C           -7.27721187007424        3.53915973984347       -1.32883702425397
H           -5.81324401935062        4.11418636879089        0.92451409266618
H           -7.52653247749858        4.04503733097862        1.33735153333528
H           -6.42709500733797        2.81568443088210        1.94773156135379
H           -7.53608470706585        2.95731435978287       -2.20950919104068
H           -8.12615187925770        4.16870105869051       -1.07214366931863
H           -6.43311823508930        4.18053923050782       -1.57339846478947
N           -7.08582680484983       -0.75935268003195       -0.88791364291711
H           -9.02759077313476       -0.71893216187457        0.81598937168705
C           -8.14476968569454       -1.67773871739612       -1.21483018759177
H           -8.04371820228617       -1.86394136238615       -2.29037837886648
C           -8.08336148948219       -3.01573516051151       -0.46522119606831
C           -9.53558931394536       -1.05883068397729       -1.00733308460932
H           -8.25621079833847       -2.88564678826440        0.60081154417296
H           -8.83680005173558       -3.68929528262652       -0.86600470133761
H           -7.09992803166122       -3.45934599750369       -0.60386638660254
O           -9.78700634323752       -0.59452591181414        0.21685383297487
O          -10.35581930575761       -1.01315750387873       -1.87878020304333
