42
 energy: -62.486133510891 gnorm: 0.000479839919 xtb: 6.7.1 (edcfbbe)
N           -1.93099953563186       -1.25099123044906       -0.37617565009087
H           -1.33783420264555       -2.04406384899165       -0.16559043821275
H           -1.36489301922039       -0.41179210480007       -0.28495363793718
H           -3.20034550160980       -0.73137081771536       -1.69886175406647
C           -3.06739091415432       -1.18746598128977        0.54371784623154
H           -3.47111138127599       -2.20320583247131        0.63811621429406
C           -2.73537336192607       -0.65063388347781        1.93312180860544
C           -4.15499905401772       -0.35869808892393       -0.13107643451175
H           -2.30108748554293        0.34461657173621        1.85753114179552
H           -3.64753913221651       -0.58405460225201        2.51535457845038
H           -2.03021793533692       -1.30776167993666        2.43767080193687
O           -4.03279065973590       -0.26831737746510       -1.46735896920763
N           -5.07945940001393        0.10983208651317        0.57739873546339
H           -8.34817413601206        1.22636820856727       -1.07156888131987
C           -6.20741074406604        0.84869116509243        0.06820341686419
H           -6.54478823255217        1.45376777252116        0.92469581217993
C           -5.95750957185609        1.78449226098764       -1.13344176068336
C           -7.32101999489706       -0.14630663368652       -0.20166182996713
H           -4.88454397020983        1.95891465798089       -1.21226144746946
H           -6.26066207655314        1.28285233235937       -2.05604743517414
C           -6.65177940773237        3.15023152918724       -1.00914337359015
O           -8.43487307483834        0.29740858062975       -0.82255394309715
H           -7.67072494729123        3.02547765361166       -0.61668588959946
C           -5.88992242439931        4.05241761795266       -0.04011550090906
C           -6.74743699641415        3.81510636132470       -2.38141164276058
H           -4.89896267730980        4.27108717808362       -0.43180708250966
H           -6.41792526498194        4.99282314479401        0.10127334349963
H           -5.77493161441057        3.57488403608084        0.93005052833548
H           -7.33917240935769        3.21342986692819       -3.06863970588279
H           -7.21174381009986        4.79514802553989       -2.29888837391524
H           -5.75462907507630        3.94119763932792       -2.80711587044039
N           -7.16968356372106       -1.33243698235321        0.18200842300701
H           -6.21211605911339       -2.43806422401553        1.17844134560126
C           -8.14172361616101       -2.37980522920117       -0.00189275266902
H           -9.12860907101493       -2.08704908988107        0.37993352661043
C           -8.28396901823055       -2.80245048067448       -1.46729129993660
C           -7.63875970208788       -3.58192343455259        0.81881235735226
H           -7.30257054101488       -3.01708230138606       -1.88578007509523
H           -8.89783451940717       -3.69711337109335       -1.52155302478139
H           -8.74928708313034       -2.00684949582569       -2.04320755527236
O           -6.46632819139785       -3.36928626129124        1.40243073407734
O           -8.24505791289653       -4.61404931059002        0.90525831454344
