42
 energy: -62.486133503269 gnorm: 0.000480290251 xtb: 6.7.1 (edcfbbe)
N           -1.34758578863122       -1.64839765641046        0.33890375937898
H           -0.40836533501701       -1.82295369993605        0.00213915040374
H           -1.78819057007961       -2.55196448195100        0.49127012933439
H           -2.30981057974027       -0.61222910975429        1.63856039812510
C           -2.11994677876017       -0.88638310412159       -0.64347014246385
H           -1.49093841191318       -0.05064967604725       -0.97543368058684
C           -2.57921500734027       -1.68777388980392       -1.85872335678875
C           -3.30841243998889       -0.27850118059339        0.08556176091765
H           -3.15943847773707       -2.55050899046912       -1.53832929185804
H           -3.21738532298526       -1.06394560686644       -2.47438270792443
H           -1.72431326524507       -2.02827001326004       -2.43955930363165
O           -3.17115772291784       -0.19925734222149        1.42780169461284
N           -4.30132356009359        0.11678005044213       -0.57147124504644
H           -6.96870732511327        0.31208492237928        1.91300500299528
C           -5.43026424719692        0.73158246029640        0.08023726225816
H           -5.19322605898048        1.01671805647767        1.11844751679202
C           -5.82077770633904        1.96894241838352       -0.74727214626288
C           -6.58200028588788       -0.24526447779199        0.08167701510072
H           -4.95710370456936        2.63529716256606       -0.78783066771161
H           -6.01721236494073        1.60725134613971       -1.75672476336103
C           -7.03881146603573        2.73515433966407       -0.22159765978602
O           -7.34139797926183       -0.27322751578698        1.24217795213747
H           -7.85688317995683        2.02918834645027       -0.04036125888575
C           -6.72504597844176        3.47951810166253        1.07593589964599
C           -7.51054718414272        3.72780592075066       -1.28245409804645
H           -5.94691583330630        4.22007613431920        0.90300257396954
H           -7.61143170370464        3.99439438748317        1.43983739056919
H           -6.38137449516882        2.80737465529038        1.85948171103345
H           -7.79342450266886        3.20589848677894       -2.19286462178743
H           -8.37313582644235        4.28536550480833       -0.92509938871996
H           -6.71813140982738        4.43403980944606       -1.52071019992810
N           -6.80395175656807       -0.95066743911768       -0.92259746698850
H           -8.94511512483108       -0.41401286264790        0.41962591711630
C           -7.84247562447323       -1.93065974608284       -1.09680418906871
H           -7.61197544605733       -2.43017943914178       -2.04492778912951
C           -7.92040910497236       -2.98243678913796        0.01892003854391
C           -9.23059833345948       -1.29269276853202       -1.26560408936710
H           -8.20751653035391       -2.53713231044903        0.96906737359250
H           -8.65002939692653       -3.74222655140209       -0.25013903076213
H           -6.94696473809949       -3.45304105007349        0.13789065379848
O           -9.62075394210157       -0.48269248648660       -0.28148120242228
O           -9.93392673708884       -1.52443001237852       -2.20676983918890
