42
 energy: -62.486133511041 gnorm: 0.000479495833 xtb: 6.7.1 (edcfbbe)
N           -1.15790472585002       -0.69411825036721        0.80236107092335
H           -0.21506424913075       -0.94071165585557        0.52734308610021
H           -1.43072612425648       -1.32121409717539        1.55451908939386
H           -2.22825562682064        0.82071240124799        1.29366130508934
C           -2.08572517600221       -0.83447869628149       -0.31902252596013
H           -1.61574534505052       -0.36598874540231       -1.19346471927091
C           -2.45869443455901       -2.27656681688061       -0.65722219851595
C           -3.31933073643602       -0.00713855130640        0.01355996507867
H           -2.90760052506160       -2.75841309839071        0.20902312052866
H           -3.18316905627104       -2.28544823083763       -1.46416241014105
H           -1.57609920410589       -2.83762240189682       -0.95808527083555
O           -3.14213512888227        0.92715593261453        0.95929489490564
N           -4.39794036241389       -0.22044785141996       -0.59873683865293
H           -5.96158858747475       -0.42695375618618       -2.40589564550500
C           -5.57545080854628        0.57458682644127       -0.30410019942311
H           -5.64144449190342        0.79843183604720        0.76653902525533
C           -5.55740373240512        1.88801129704090       -1.10213332902462
C           -6.74687850638573       -0.29381709446280       -0.69327981216494
H           -4.75640295290688        2.51024563391670       -0.69833697629428
H           -5.30724693301003        1.66826650574949       -2.14504529799283
C           -6.88286364332530        2.65571725504037       -1.05417016797384
O           -6.78770393773690       -0.68944059517094       -1.97743692112983
H           -7.67019599320937        2.02418555462652       -1.48164317298877
C           -7.27733699673768        3.01453089277403        0.37597334147871
C           -6.76379474384985        3.92069431413116       -1.90285653008531
H           -6.46794127967900        3.54687636630995        0.87100856078457
H           -8.15677514573100        3.65405763663240        0.37089912150723
H           -7.51316897056086        2.12207315231715        0.94888544694994
H           -6.49560245563403        3.67724481434086       -2.92877790795077
H           -7.70815248659111        4.45906224205134       -1.91593582842056
H           -5.99962142792154        4.57873106064257       -1.49444665145765
N           -7.56188989512946       -0.67539654298337        0.18760705305512
H           -8.29992983245228       -0.48179580199109        1.82909863329493
C           -8.67153354376206       -1.54871425058658       -0.13020961736936
H           -9.17423332500175       -1.24945689884377       -1.05824383222736
C           -8.22174620125594       -3.00817147289364       -0.26039929874603
C           -9.67404577474443       -1.45102496297519        1.02883643344786
H           -7.68420828911141       -3.31115749806041        0.63588754615110
H           -9.09458336499277       -3.64278771448329       -0.38507789209149
H           -7.56657254879332       -3.11768167689250       -1.12071227120083
O           -9.20147572590315       -0.79234640668166        2.08072624294216
O          -10.76800896696870       -1.94171648613812        0.99310639640172
