42
 energy: -62.486133513031 gnorm: 0.000479749170 xtb: 6.7.1 (edcfbbe)
N           -2.14668828223217       -2.43664113769992       -0.75971451142174
H           -1.18271640214170       -2.74621718235569       -0.78435490063271
H           -2.52754654693386       -2.54087152009849       -1.69640860705420
H           -3.76103288036977       -2.64416732520816        0.22626629636835
C           -2.23691294105676       -1.03663810476718       -0.34765198322169
H           -1.62624772599405       -0.92412950572589        0.55752446183268
C           -1.76917796583704       -0.03548869741200       -1.40072327420408
C           -3.69009181086058       -0.78145878640745        0.05561672435144
H           -2.35894259837548       -0.14807984635117       -2.30795771295297
H           -1.90987191405875        0.97189160067164       -1.02565671660936
H           -0.71811518960161       -0.19185639642648       -1.63686099861108
O           -4.34901820143188       -1.88782667128404        0.43199245981561
N           -4.08807642344409        0.40710526260270        0.09192847259091
H           -7.00738781104701        0.88071748770668        2.16885180485288
C           -5.41382937701082        0.91021134022724        0.31310099035079
H           -5.33350204288876        1.57136072839461        1.18927038215169
C           -5.76780745525915        1.76223698172433       -0.92414607826021
C           -6.52934959631353       -0.08484464028321        0.53759469233219
H           -4.92543603803647        2.42566138715197       -1.12347812278682
H           -5.86455397181874        1.06956363417927       -1.76109079870436
C           -7.05699471551562        2.57857454045194       -0.78552363036324
O           -7.33314420254460        0.13880125735302        1.64588428169204
H           -7.86119736070694        1.92187888186684       -0.43497897750562
C           -6.89557241952161        3.73623790152200        0.19840283024867
C           -7.46180098073051        3.12051387361557       -2.15518626309953
H           -6.10943629999896        4.40823957155482       -0.13913932861305
H           -7.82215112089131        4.30142459769434        0.26935309042444
H           -6.63868781700604        3.38934392769642        1.19695107999875
H           -7.63613720711761        2.30436550047066       -2.85160308007534
H           -8.37557059221326        3.70499221725559       -2.07848832814172
H           -6.67744214536217        3.75789170802815       -2.55780245633761
N           -6.68259095968748       -1.02875700290633       -0.26473227637397
H           -8.89883352701567       -0.30888862099063        0.85057334884578
C           -7.66088969362494       -2.08159899766645       -0.20493714711461
H           -7.36471433320997       -2.79505634569929       -0.98270378566513
C           -7.72149327592023       -2.80830346186911        1.14503669002975
C           -9.06609769861440       -1.58652670003322       -0.57391085546160
H           -8.11037779107723       -2.16336687017473        1.93011382948619
H           -8.35954182817898       -3.68420658730729        1.05842023911677
H           -6.71671405825288       -3.12020150261676        1.42011960312011
O           -9.53936480028331       -0.58367939974201        0.16710413784744
O           -9.71113439658014       -2.07423298120550       -1.45812159318583
