42
 energy: -62.486133528124 gnorm: 0.000478164275 xtb: 6.7.1 (edcfbbe)
N           -1.90781567042326       -0.93370393796777       -2.25403788846733
H           -1.12867523249740       -1.51433250571759       -2.53882873378778
H           -1.61829007260209        0.03598537388219       -2.34757335062528
H           -3.80855408426093       -0.72554073716961       -2.55306056894228
C           -2.28873785656209       -1.20653965090937       -0.87013624740224
H           -2.35937873387703       -2.29737237593990       -0.76266609157981
C           -1.32442172769712       -0.65820335124371        0.17934999306485
C           -3.69471761691851       -0.65510039543367       -0.67773632300450
H           -1.23217074405902        0.42003305538986        0.07233972210370
H           -1.70819321322343       -0.86979889255054        1.17174330162048
H           -0.34130063603154       -1.11148382729602        0.06620620416912
O           -4.39846886314875       -0.49714671473400       -1.80584925904237
N           -4.11370537437218       -0.42037835579055        0.48788440864366
H           -5.45400905607113       -2.25937680612184        1.08258815865677
C           -5.46285523898622        0.08540807222013        0.70652214134291
H           -5.58175592978715        0.11143890178037        1.79933954704549
C           -5.65520695609683        1.49368993122123        0.13530021285412
C           -6.45145188910772       -0.91719622823813        0.15596193506323
H           -4.76870901044163        2.08007120904395        0.38869452572463
H           -5.70916567075244        1.40878547038307       -0.94998078297742
C           -6.90498009743452        2.20849779502399        0.66153267270109
O           -6.26151142985399       -2.19604384827964        0.55421658448583
H           -7.73405999998897        1.49546839478755        0.66644507098316
C           -6.69364257248834        2.72874905199492        2.08197554429016
C           -7.26456401741084        3.36799280439597       -0.26621737986286
H           -5.88670252743787        3.45873288013487        2.10221529642408
H           -7.59842252648052        3.21028532378086        2.44593102125844
H           -6.44273578475622        1.92246633854495        2.76669306468495
H           -7.48044500250033        3.01108001758619       -1.27012631103729
H           -8.14163979418120        3.89283589622271        0.10470435420578
H           -6.44083367609606        4.07703350518201       -0.32184849331611
N           -7.36530571010528       -0.56452917317615       -0.62989937540918
H           -7.92901983715341        0.64160483552166       -1.83121769490679
C           -8.30005676677792       -1.49851287632407       -1.20934420065566
H           -7.81806726249469       -2.44262046710148       -1.49348770960044
C           -9.45806160306915       -1.80125325942694       -0.25245971213064
C           -8.86957463536596       -0.83119359028489       -2.47188654737360
H           -9.92170851580338       -0.87280450946577        0.07541060559897
H          -10.19897756207325       -2.40642772891175       -0.76723053433318
H           -9.08978944139736       -2.34055197516937        0.61698220991678
O           -8.52574434152098        0.44427562337795       -2.59384741553742
O           -9.57276456502536       -1.40634881114826       -3.25566678366367
