42
 energy: -62.486133512643 gnorm: 0.000480142539 xtb: 6.7.1 (edcfbbe)
N           -0.92774768757854       -0.83357454313959        0.60943246910279
H            0.04160869260776       -0.87330348345650        0.31998941848683
H           -1.16020153273546       -1.73195819575981        1.02413911911144
H           -2.11491916391129        0.32552716593240        1.58299914689741
C           -1.80744861589042       -0.56384343257275       -0.52607659101534
H           -1.35952025521888        0.25712596116348       -1.10035507811204
C           -2.03836188892632       -1.75514324660336       -1.45496508731869
C           -3.11672654903376       -0.02965196528821        0.03954276314222
H           -2.45619600087215       -2.59306658644055       -0.89894887248541
H           -2.73256106701206       -1.47423211756448       -2.24009924412997
H           -1.09975606385196       -2.06989111698074       -1.90631243892640
O           -3.03184568651101        0.47953927322006        1.27639666403763
N           -4.15659683743524       -0.05378725373169       -0.67171110335632
H           -4.94472589419198       -1.78134663257942       -0.70696018983011
C           -5.42621771854401        0.44110255867109       -0.17181175737990
H           -5.36422295511708        0.71663014801102        0.89022182100087
C           -5.75137420325113        1.68986374147443       -1.00972307669582
C           -6.42413197507160       -0.69621395102995       -0.29686170175089
H           -4.94154290992971        2.40029326341780       -0.82145405713989
H           -5.69723351467698        1.40062367081148       -2.06122481776407
C           -7.08921702710184        2.38601514397011       -0.75070141613404
O           -5.88653751590723       -1.91551968141131       -0.48851883655394
H           -7.88690124900228        1.75156147150723       -1.14116966124709
C           -7.33305518797030        2.63603000920897        0.73456374172055
C           -7.11673980875490        3.70789720109178       -1.51760191888546
H           -6.51426250461972        3.21035822739484        1.16371533403779
H           -8.25343624257450        3.19858241216207        0.87244020343905
H           -7.42199158934792        1.69731590802748        1.27439279421643
H           -6.93026518071015        3.54293748275085       -2.57611411520667
H           -8.08816269614668        4.18413291099829       -1.41195783998741
H           -6.35770281026438        4.38839792503926       -1.13661386707239
N           -7.66695996400222       -0.48600431904493       -0.28411398285336
H           -9.17330511111198        0.59404050671380       -0.05920273372729
C           -8.60239047381494       -1.58254235325169       -0.41810352878412
H           -8.34767524905422       -2.22965670177996       -1.26659797753636
C           -8.66879836326608       -2.43960358911940        0.85284935071098
C           -9.99441232454308       -0.98076396301412       -0.64199014309617
H           -8.89269708642987       -1.81183601316697        1.71358993595772
H           -9.45069429415801       -3.18590635254969        0.74368523011849
H           -7.71538071593626       -2.93605152106217        1.01339593946423
O          -10.07818957552415        0.30262230895457       -0.30964962660260
O          -10.92769446280212       -1.61872612266874       -1.04357923119607
