42
 energy: -62.486133522026 gnorm: 0.000478800174 xtb: 6.7.1 (edcfbbe)
N           -2.15551893439400       -2.39453382766916       -1.07038554353150
H           -1.18780823269155       -2.68380563845421       -1.14769248995233
H           -2.53188236972171       -2.32607086754153       -2.01224023863734
H           -3.79135389789685       -2.78083028466398       -0.15851125790463
C           -2.26042886826940       -1.09568997368187       -0.40766519214255
H           -1.67612847526620       -1.15731470710078        0.51939143578902
C           -1.76327142960108        0.08282636576592       -1.24092120612007
C           -3.72659396097698       -0.91580892939999       -0.00873276515872
H           -2.32831960786738        0.14658804823088       -2.16815089527249
H           -1.91296307518214        1.00242891781707       -0.68690710815324
H           -0.70649243076646       -0.03235187225243       -1.47453285652524
O           -4.38550088843217       -2.07045159316505        0.15986714143473
N           -4.12782805873988        0.25025456329304        0.21780104868756
H           -7.34015303508388        0.72616979853562        1.99511826831545
C           -5.45090805103917        0.74378283905526        0.46035744135823
H           -5.40597222725375        1.23382569751513        1.44469133802333
C           -5.69917056145261        1.81749746689607       -0.62470485565706
C           -6.61490148166370       -0.22002593330256        0.44243334117164
H           -4.81328706686920        2.45270166913492       -0.66296433874521
H           -5.77671876760025        1.28672327185902       -1.57481271786810
C           -6.94771613765431        2.68096881661932       -0.41911528906686
O           -7.58537461040383       -0.00339294578059        1.41400913715148
H           -7.81282382239901        2.03271301837628       -0.24083499843501
C           -6.78863335201284        3.64016375796033        0.75978876192268
C           -7.22211922461796        3.47751520915093       -1.69381356371826
H           -5.95834685494361        4.31939495959847        0.57895991195017
H           -7.69236173118501        4.23152844400819        0.88907373859472
H           -6.59555934694591        3.11484607147792        1.69294676438695
H           -7.40040578975217        2.80788877072169       -2.53131496697542
H           -8.09911405855813        4.10795553951133       -1.56781865916355
H           -6.37236094806240        4.11289888541241       -1.93398578749268
N           -6.66643178903263       -1.12943881017726       -0.40902467359864
H           -9.01144597153944       -0.36749200175513        0.37440494285987
C           -7.67805706927886       -2.14021834894072       -0.56131396125282
H           -7.28583167820066       -2.82818391870942       -1.31923048543346
C           -7.97533006588030       -2.92685850922583        0.72199744990456
C           -8.99092610903030       -1.57368576216883       -1.11982090925952
H           -8.44215003950911       -2.29841757596503        1.47748458499230
H           -8.63803773986379       -3.75800236009760        0.49404593053834
H           -7.04038799276694       -3.31263105067291        1.12163821532024
O           -9.54524634872387       -0.58836836209426       -0.41311667259280
O           -9.50232916468807       -1.99712495961587       -2.11746324710690
