42
 energy: -62.486133509135 gnorm: 0.000479951358 xtb: 6.7.1 (edcfbbe)
N           -1.49004339178196       -1.03331921664678       -0.62812600796405
H           -0.86065275569091       -1.82659624223682       -0.64701156580937
H           -1.03394661881460       -0.29463451847138       -0.09925901519734
H           -2.58994033692251       -0.03545553449485       -1.82934428857328
C           -2.75768001989589       -1.38697112939985        0.01137890552731
H           -3.08797594342179       -2.33777051173028       -0.42644533132973
C           -2.69318084414006       -1.52803208708460        1.52868989409807
C           -3.78320472034868       -0.34123085980826       -0.41336240947445
H           -2.32559716771272       -0.60666121519063        1.97521902194301
H           -3.68942942897311       -1.71929791095818        1.91141137186036
H           -2.03232286834568       -2.34622379719417        1.80763687173424
O           -3.48487656217865        0.27351781793419       -1.57788649479636
N           -4.80204812745654       -0.17371851789446        0.29742570669796
H           -6.73510119524779        0.68046452155132       -2.30630722970251
C           -5.89177992143897        0.73814081930234        0.02080975303694
H           -6.25063445725340        1.02284763342701        1.01810944030751
C           -5.56894892559225        2.00787187452578       -0.77328471120644
C           -6.97938673611656       -0.13368411326015       -0.58617393824949
H           -4.70670390189742        2.48166402021663       -0.29848073097625
H           -5.25569830043643        1.75889085230831       -1.79120267565984
C           -6.73724397099294        3.00562594378297       -0.80638199724448
O           -7.26166091421339       -0.01963186421555       -1.89798998007251
H           -7.67299716669414        2.46448712549836       -0.99070360471343
C           -6.87283354972920        3.74443988850883        0.52317258388080
C           -6.52841714873392        4.01106815459247       -1.93871399042782
H           -5.96563232231027        4.30522045228398        0.73874084909522
H           -7.70504139082152        4.44331108340192        0.48207015286016
H           -7.05371210635226        3.05262873030596        1.34167387368693
H           -6.49315006524865        3.51443188626839       -2.90666897036078
H           -7.34014857364432        4.73420388194877       -1.95910262592411
H           -5.59392275519830        4.54975401272307       -1.79660998578646
N           -7.51279243189337       -0.99974747353167        0.15483605091562
H           -7.77555585908237       -1.68803206129712        1.79962378872409
C           -8.48677123610019       -1.94826706300781       -0.33128404695562
H           -9.26720135977862       -1.46404795456143       -0.93166871177545
C           -7.83623053829432       -3.05753325006491       -1.16604002159566
C           -9.13462282973231       -2.59418421820950        0.90392398049159
H           -7.02496834338328       -3.51413354138755       -0.60237986740576
H           -8.58028504054927       -3.81390138518700       -1.39951428562578
H           -7.43814079036585       -2.64357452945953       -2.08886566824375
O           -8.50623634337191       -2.30913285133941        2.03644982888598
O          -10.09947430353067       -3.30481267229021        0.84057135334210
