42
 energy: -62.486133518745 gnorm: 0.000478538575 xtb: 6.7.1 (edcfbbe)
N           -2.17086864508030       -1.35159099365723        1.50392077586719
H           -1.60140075314723       -0.53144748871998        1.68630881347095
H           -1.56826107744683       -2.16563715896830        1.53754947187798
H           -3.92995408002929       -0.87897201506411        2.18406227495841
C           -2.83563061203136       -1.24670602699454        0.20703139676691
H           -2.20318038345478       -0.83323986529444       -0.59063089127119
C           -3.35260536317428       -2.62258467684670       -0.21944854892212
C           -4.04082793249614       -0.34495625796152        0.39291589080145
H           -3.99492286595609       -3.03679456058537        0.55538966192265
H           -3.92166333517830       -2.52691538489268       -1.13953232340449
H           -2.52159232197859       -3.30422702563787       -0.38829808418534
O           -4.54954302496857       -0.35161041212147        1.63673824175164
N           -4.48332966600876        0.31224703459219       -0.58336013271806
H           -7.44124786515239        0.90564945307097       -2.23776400975354
C           -5.71249011855240        1.07533558976236       -0.45593299574175
H           -5.79175357535538        1.49622449494783        0.55685342388558
C           -5.68829868951110        2.19818211151996       -1.49413031793992
C           -6.86101084011409        0.08775600400169       -0.60090087615244
H           -4.71528545672139        2.68621161698095       -1.41305343997842
H           -5.72163581906669        1.76281139721737       -2.49789517378807
C           -6.79446353671753        3.24857377220259       -1.30797098650848
O           -7.68775489777772        0.17097321948444       -1.66122147648241
H           -7.73844824726202        2.75172814983945       -1.05309615700899
C           -6.44866630028291        4.20469095962162       -0.16799713778677
C           -6.99394327610433        4.03566636924150       -2.60303257563051
H           -5.53104830210239        4.74428333724727       -0.39241956739566
H           -7.24683653353958        4.92974340885304       -0.02671165979269
H           -6.31143240806807        3.66626853270405        0.76624417195404
H           -7.29908736544371        3.38448950011346       -3.42046126831216
H           -7.76085324999914        4.79533954646374       -2.47188814229028
H           -6.06812389203878        4.53041951932864       -2.88840606131428
N           -6.95815288139637       -0.80533178159284        0.27851159817720
H           -6.30025120352985       -1.47027837062727        1.83491004652101
C           -7.92841675483497       -1.86947447785832        0.26277486048329
H           -8.95240144166441       -1.47339565188744        0.26541191884754
C           -7.76996348481328       -2.81828315176598       -0.93011213382553
C           -7.71693278114529       -2.67298796842866        1.55893120774013
H           -6.74069378040314       -3.16752814923243       -0.98974328795973
H           -8.42753399591855       -3.67206354360842       -0.79250852973031
H           -8.02538053033558       -2.30761101431843       -1.85448435433241
O           -6.69089554167857       -2.26112275927971        2.28821654848271
O           -8.40940842972240       -3.60586110090617        1.86416505680127
