42
 energy: -62.486133521804 gnorm: 0.000478646235 xtb: 6.7.1 (edcfbbe)
N           -0.70993351336992       -0.08501199218796       -0.18162308598747
H            0.14107871622801       -0.34674526973010       -0.66431896208706
H           -0.64962360500385       -0.44866115924997        0.76524082636350
H           -1.83665309824159        1.48581596666840        0.04691700420878
C           -1.88533181901766       -0.63457629558981       -0.85344322572463
H           -1.79020055076524       -0.38755092418280       -1.91967526031775
C           -2.06198460831329       -2.14486307946019       -0.70530449090518
C           -3.09021655245711        0.14392284157289       -0.34024333419280
H           -2.23379894082055       -2.40536501560590        0.33696682014466
H           -2.91084047558942       -2.47878008212735       -1.29278738443477
H           -1.17022914900235       -2.66113790023394       -1.05565019737043
O           -2.80956338977847        1.38655312712786        0.07666086618713
N           -4.21999125766481       -0.40628639416782       -0.33250566160374
H           -5.07993645622106       -1.98959871687659       -0.30418577997531
C           -5.46456253036819        0.23361007821549        0.04977158319941
H           -5.44946171874096        0.46221931066991        1.12364411025205
C           -5.66585399086137        1.53782909821620       -0.74336116052285
C           -6.53106578545421       -0.82863438160086       -0.19329815848032
H           -4.83929112484189        2.19687437685021       -0.47173576469171
H           -5.56555213304336        1.29470951381664       -1.80434681937774
C           -6.97559077599286        2.30343208805431       -0.53702989372971
O           -6.05744977770130       -2.07895178882002       -0.27982467046463
H           -7.77774431992597        1.75666397195304       -1.03504192174564
C           -7.32544477417302        2.46904740392187        0.93850519580441
C           -6.85372979766032        3.67334864354028       -1.20469659247073
H           -6.51006096299399        2.95508627981310        1.47101531110969
H           -8.21593804918020        3.08437822768835        1.04401776439377
H           -7.52090417068490        1.50446743541421        1.39920893372389
H           -6.58866678277558        3.56731259134936       -2.25409197280556
H           -7.79848056083733        4.20771759221683       -1.14382995568797
H           -6.08790079830659        4.27226384934757       -0.71545677116439
N           -7.74819944547641       -0.53148782459340       -0.33957498860951
H           -9.21225630648009        0.62717925035862       -0.23218810731540
C           -8.73016757381542       -1.56893833407438       -0.58263174525905
H           -8.42546789811818       -2.22574663427230       -1.40674956157407
C           -8.98692747937504       -2.42884120127399        0.66218220813046
C          -10.05108386251414       -0.88219805524781       -0.94524547969790
H           -9.26618071188185       -1.79509939093794        1.50222313558830
H           -9.79556832775439       -3.12508814279288        0.45802618910966
H           -8.08862402484958       -2.98403007642340        0.91843404877346
O          -10.09934695381111        0.39632802324716       -0.58671142126002
O          -10.96744592340405       -1.45319289442728       -1.46832662176300
