42
 energy: -62.486132279636 gnorm: 0.000625522180 xtb: 6.7.1 (edcfbbe)
N           -1.84441799300123       -1.15559176393436       -0.73756533547410
H           -1.59150513983333       -0.48148713285619       -1.45225989780409
H           -1.66032860149070       -2.08377678590380       -1.09991971940276
H           -1.54727038807322       -0.24683009861659        0.91141564850174
C           -3.24748045316066       -1.01525666967528       -0.34973595146996
H           -3.91420814791241       -0.88784977301828       -1.21206049511288
C           -3.67453082828938       -2.24972860516098        0.44716623121300
C           -3.34118704090769        0.18169038711583        0.61091500615728
H           -2.97670330765362       -2.41781460879312        1.26474935936647
H           -4.66632072288935       -2.09789812712876        0.86300453822679
H           -3.68896514271708       -3.13202548788144       -0.19019065550377
O           -2.20594164347243        0.37303401888964        1.29057213981399
N           -4.32241311084399        0.89926820747403        0.92713387704942
H           -5.63772655126292        0.37550311642635       -2.05206215104450
C           -5.60455906280412        1.10480574289461        0.32038999802492
H           -6.23998246067697        1.40452211278351        1.16295533545889
C           -5.48189614033274        2.29907972816813       -0.64377917929093
C           -6.31336288779025       -0.08090400138427       -0.31183021964159
H           -5.00422760604831        3.10348260357157       -0.08221491841520
H           -4.79470439359934        2.04459359846564       -1.46041918903248
C           -6.81444849677131        2.80261793595862       -1.21481945858749
O           -6.12518935787322       -0.34324273823489       -1.62818515260569
H           -7.33674495159073        1.98131534045520       -1.71987972584123
C           -7.72850113981899        3.33805845994679       -0.11546594162358
C           -6.53674444391960        3.89893728089324       -2.24344310015971
H           -7.21540061914679        4.09913815436858        0.46760566647575
H           -8.61773265367551        3.78331046686388       -0.55533828224624
H           -8.04738907469873        2.54276849599113        0.55271840663456
H           -5.90368860358149        3.53225127170521       -3.04945726366454
H           -7.46702057928667        4.25521226394485       -2.67857788647036
H           -6.03533151365304        4.74010458346132       -1.77027129540116
N           -7.10795571074482       -0.75274158900906        0.39774998059089
H           -8.07751475099346       -0.93613440154928        1.94568603045895
C           -7.90932701511376       -1.82354322638893       -0.15142178459108
H           -8.35125728386039       -1.53012792095732       -1.11295598146190
C           -7.12803022186691       -3.12497681716801       -0.35779842988546
C           -9.04466781751318       -2.09951796921812        0.84717352471753
H           -6.67054121193447       -3.44198756074203        0.57704936552339
H           -7.81486188317323       -3.89719014280563       -0.69277869753239
H           -6.35468565455877       -2.98051753603389       -1.10775566701715
O           -8.89495144308794       -1.48027007574802        2.01102232717121
O           -9.96643172697308       -2.82444696005180        0.59684315269082
