42
 energy: -62.486133509426 gnorm: 0.000479782249 xtb: 6.7.1 (edcfbbe)
N           -0.84637891990375       -0.42619530657864       -0.39763198678764
H           -0.09752603821346       -1.02462397602397       -0.72422127936356
H           -0.64413896706717       -0.18376765845551        0.56863857279437
H           -1.82123511766581        1.11758594817506       -0.92081767048592
C           -2.13614450423838       -1.11090677794583       -0.47477377195500
H           -2.19259792252190       -1.58649271411329       -1.46276457434501
C           -2.36372988471301       -2.16596424313447        0.60444457196614
C           -3.22164729618055       -0.03566340329303       -0.44301400993582
H           -2.27522680681635       -1.71558249121622        1.59097183787474
H           -3.36389111360942       -2.57348433103171        0.50553273675120
H           -1.63403121823506       -2.96809771915317        0.51332316897364
O           -2.79029510233049        1.19009386426713       -0.79362814737202
N           -4.38463010070126       -0.37719565414302       -0.12220279923899
H           -5.66322176410160       -0.49314960152841       -2.24333144491570
C           -5.56376654845019        0.45217109187152       -0.04742446520948
H           -5.77987763922797        0.58070685077930        1.01825896458267
C           -5.51912355375622        1.82474716093627       -0.74065178312144
C           -6.67906965830644       -0.38789628528381       -0.63536962687506
H           -4.77117780986449        2.44266198752605       -0.24303792844904
H           -5.19275495045910        1.69315824288793       -1.77677650436144
C           -6.86672525198010        2.55659888633556       -0.73578533130953
O           -6.52299220644344       -0.78380662758354       -1.91349851642457
H           -7.61424032708305        1.92881100610171       -1.23394772204181
C           -7.35061522105023        2.84632587951750        0.68250052063714
C           -6.73196336561148        3.86113593976255       -1.52016205591968
H           -6.59211124137507        3.39428960405978        1.23789301235691
H           -8.25490484957455        3.44928913020097        0.65155718826771
H           -7.57971594312707        1.92592810796243        1.21205312857016
H           -6.40876687915531        3.66966325241183       -2.54116059899073
H           -7.68504776206587        4.38300794197445       -1.55634187511091
H           -6.00123248443102        4.51289066740557       -1.04579456871048
N           -7.67489011302719       -0.69386873354007        0.07028378657184
H           -8.71936249562835       -0.40498550859976        1.52832185816119
C           -8.76150277606833       -1.49207723676598       -0.45456655836980
H           -9.02361327471410       -1.20672348513755       -1.48101998469285
C           -8.42019388870334       -2.98610070823616       -0.42765664774996
C           -9.97766371153757       -1.25845700459549        0.45308004780925
H           -8.12064397029474       -3.27964620703262        0.57631283567135
H           -9.29431817964371       -3.55986844485086       -0.72240317782121
H           -7.60287043742613       -3.19021521894287       -1.11459845780411
O           -9.67987287954390       -0.61970157167442        1.57859681347265
O          -11.08247908005159       -1.63662046340389        0.17974743546643
