42
 energy: -62.486133504265 gnorm: 0.000481089710 xtb: 6.7.1 (edcfbbe)
N           -0.77488570833052       -0.06368910299602       -0.65771811370346
H           -0.01430063204672       -0.35639093622876       -1.25888176459365
H           -0.52698899094078       -0.31783284042796        0.29462223019666
H           -1.89556309450333        1.48163904580127       -0.36293001296121
C           -2.02553041907217       -0.71794461255675       -1.03845260646051
H           -2.12289767219393       -0.62396910508324       -2.12785822613688
C           -2.12193382779290       -2.19261487259083       -0.65382921656965
C           -3.16250924971849        0.09935167723334       -0.43767671432718
H           -2.00732013477633       -2.30922888230693        0.42234387208949
H           -3.09401150747723       -2.57740926177693       -0.94292454639450
H           -1.34556331335823       -2.76687405740400       -1.15502858305420
O           -2.85005640351706        1.37787087947799       -0.17203773429373
N           -4.27387289976914       -0.45350137040794       -0.24705666882210
H           -5.33478737124039       -1.97271072743382        1.12231460610749
C           -5.45052876204935        0.22219346595088        0.26950962641270
H           -5.28915572420440        0.46255778244388        1.33105993747890
C           -5.82758677791940        1.49749364037978       -0.49243844093874
C           -6.52447894719597       -0.84320984421339        0.17344280856952
H           -4.95621653957615        2.15153690109252       -0.52525432354408
H           -6.07511380232192        1.20626147666390       -1.51436734468377
C           -7.00143766656962        2.26349068123939        0.12876973347820
O           -6.26414321898264       -1.97830467721690        0.85451731087250
H           -7.79067877012471        1.55042797550546        0.38292157308536
C           -6.57627933438948        2.99899644534300        1.39817774847009
C           -7.55642296954414        3.26102250373659       -0.88657138553685
H           -5.78156512594555        3.70854355424266        1.17689702183603
H           -7.41768783544583        3.54641330343262        1.81686725748995
H           -6.21674755963088        2.30754263153256        2.15634579978900
H           -7.91544704701609        2.75019482781562       -1.77671905860692
H           -8.38490119296556        3.81932877081582       -0.45704753768203
H           -6.78439363593230        3.96834529136842       -1.18253976158024
N           -7.51936919001725       -0.69880074503144       -0.58096807479910
H           -8.37347869936363        0.24116784851798       -1.85221486668017
C           -8.51220809582113       -1.73141069096707       -0.76031601328987
H           -8.05180382925381       -2.71332649400895       -0.92832853492313
C           -9.45932209847951       -1.82993516415646        0.44050923741919
C           -9.33630387113057       -1.34522619875414       -1.99890267491085
H           -9.89541030787413       -0.85528527082102        0.65157925223843
H          -10.25529931430934       -2.53320995891181        0.21270047748799
H           -8.91233404464831       -2.17183954106326        1.31549604917616
O           -9.08850258249832       -0.11563756688038       -2.43287633977418
O          -10.13915309170810       -2.07805263380149       -2.50620094923544
