42
 energy: -62.486133518965 gnorm: 0.000479001244 xtb: 6.7.1 (edcfbbe)
N           -1.53729987577920       -0.58258203389920       -2.02722687590676
H           -0.73948498034298       -1.14592779382945       -2.29486540466885
H           -1.20548664437664        0.36665899210037       -1.87880397216373
H           -3.34820831846930       -0.21179909826681       -2.58043885555440
C           -2.15395326020588       -1.08927309848542       -0.80311672182968
H           -2.26674082152301       -2.17518472498251       -0.92300255971595
C           -1.36993522160607       -0.80224448757822        0.47577142930212
C           -3.56023244869954       -0.50606101169496       -0.73837654460389
H           -1.21454361851947        0.26914222506917        0.58589242296658
H           -1.93338269722378       -1.15328165018457        1.33365247573042
H           -0.40289161268605       -1.30002819183855        0.44957865800027
O           -4.05586741385924       -0.10041265867548       -1.91281323535313
N           -4.16178049337844       -0.47172483932210        0.36977845143497
H           -5.23229632687128       -2.31770703109127        0.37598515621922
C           -5.52065768141040        0.03552709327283        0.47880419743431
H           -5.72383118797502        0.04031742809295        1.56004899294511
C           -5.71858182614216        1.45221471612460       -0.07448190761361
C           -6.47350742667038       -0.96935879422143       -0.13510601659859
H           -4.79698918166804        2.01404423001155        0.09532279246333
H           -5.87889820809537        1.38298092002758       -1.15023036019692
C           -6.88912631010625        2.19652693922866        0.57932475217661
O           -6.10923336339426       -2.26476688159129       -0.03393964238883
H           -7.72584738961662        1.49977136091621        0.68103065303230
C           -6.51057560492599        2.71649937303323        1.96493815033198
C           -7.32478760626571        3.36185341778015       -0.30720761113917
H           -5.71066887989194        3.45050048013498        1.88780868713530
H           -7.36658925849080        3.19341073855733        2.43642873073502
H           -6.17276847951860        1.91160661158154        2.61322595942189
H           -7.64670515755666        3.01096871871443       -1.28434482607624
H           -8.15187470697545        3.89870704457027        0.15105274138820
H           -6.50078268594212        4.05902821507519       -0.44592562646835
N           -7.55306054180381       -0.59021560264717       -0.65619695275006
H           -8.47555565354816        0.73369380112950       -1.47332969320437
C           -8.49856311066332       -1.52005500723445       -1.22898556910877
H           -7.99999650891538       -2.32401925241256       -1.78535869102160
C           -9.39259692397596       -2.14458528387501       -0.15235721782443
C           -9.38391242601174       -0.72335490637084       -2.19966483528402
H           -9.85239648099462       -1.36207274654048        0.44799970917731
H          -10.17189596441556       -2.73156452093768       -0.62996955178731
H           -8.80006494895948       -2.78653537468270        0.49471048000834
O           -9.19376380505300        0.58837724725430       -2.13474916439309
O          -10.18085621890808       -1.24110031612521       -2.93192748351071
