42
 energy: -62.486132570287 gnorm: 0.000645101296 xtb: 6.7.1 (edcfbbe)
N           -1.48337982954147       -0.48532052579507       -0.10935309756496
H           -0.79002574009776       -1.18499824535361        0.13291669691171
H           -1.98052449179757       -0.21271114587574        0.73212263093517
H           -4.01897510128280       -0.60313501174985       -2.84150522642440
C           -2.44152251436553       -1.02622309399098       -1.05232699565637
H           -2.01312215524999       -0.91635704461494       -2.06144514522017
C           -2.78700085678986       -2.50972712538517       -0.81785227115434
C           -3.74347320092118       -0.25779889458828       -0.97035320675598
H           -3.18321651291316       -2.63200995979743        0.18761980397702
H           -3.53862535861136       -2.85130393011876       -1.52587727447462
H           -1.89567939619327       -3.12435970584986       -0.92904076498464
O           -4.44041565415943       -0.12731752367675       -2.11463264024273
N           -4.09173412218578        0.18709176482915        0.15365737294747
H           -7.32964704270938        0.68938863238746        1.83486343149362
C           -5.37002480118758        0.79563857433962        0.41769852946316
H           -5.29828353342256        1.15084352204833        1.45634629179969
C           -5.68833547502045        1.98575950320611       -0.51161806040665
C           -6.47988640268794       -0.22706096015800        0.33547007101781
H           -4.78962139449376        2.60474325405933       -0.56216918602266
H           -5.87678390745106        1.58311777603885       -1.50692916374285
C           -6.87599942699360        2.85411907839549       -0.08205174608016
O           -7.51688503514774       -0.04415843980547        1.23639935265035
H           -7.75225800544621        2.21790037413197        0.08686574830340
C           -6.57770397028340        3.64810833230671        1.18966006861134
C           -7.22346323290648        3.81845509151184       -1.21575349976946
H           -5.72812972334416        4.30754242927658        1.02640702054356
H           -7.43589215698671        4.25866187903704        1.46230724272962
H           -6.34324071478201        3.00321279561921        2.03449538375459
H           -7.49489254524963        3.26994572563699       -2.11419629029011
H           -8.06219527729282        4.45100079972335       -0.93413497082175
H           -6.37277223748403        4.45650293102597       -1.44471627053215
N           -6.44474058360579       -1.13651034817205       -0.51805543213020
H           -8.85415455092995       -0.41624157813174        0.05695784162061
C           -7.41427000765210       -2.17562191606973       -0.73881362707465
H           -6.94750326788231       -2.86124621238675       -1.45605102979694
C           -7.81073714446861       -2.96043267176287        0.51889749260571
C           -8.68655429899850       -1.63998633365816       -1.41405762555791
H           -8.33040406828203       -2.32990383514221        1.23689475574033
H           -8.45965821504759       -3.78675265024789        0.23941818489153
H           -6.91565699944818       -3.35795410041583        0.99250045968245
O           -9.31563744381116       -0.65960396659309       -0.76762785298263
O           -9.10316487061816       -2.08732271761497       -2.44400162135427
