42
 energy: -62.486133507117 gnorm: 0.000481048880 xtb: 6.7.1 (edcfbbe)
N           -1.33617746093325       -0.49899020103324       -1.89507651926621
H           -0.60993230645162       -1.12801567397681       -2.21460384397725
H           -0.88248806333052        0.32977088884269       -1.52071167050017
H           -2.98505604903005        0.24522001188863       -2.51663219860764
C           -2.16068357841567       -1.12471820514310       -0.86367693133599
H           -2.41078058815141       -2.13380203093922       -1.21555470731749
C           -1.49637414239623       -1.21828410933612        0.50796182565946
C           -3.47478937516486       -0.34770992265964       -0.80774026491649
H           -1.23703854058452       -0.22403799590342        0.86591677448214
H           -2.18063531565415       -1.66771895509988        1.21923935424291
H           -0.59243462069064       -1.82155546447334        0.45062660283261
O           -3.75482723044965        0.34260429850413       -1.91829127732054
N           -4.17596329505405       -0.43080052092692        0.23357610124056
H           -5.24070520583215       -2.10952375350252        0.85457964145304
C           -5.48334082885216        0.17833183441342        0.41030226444910
H           -5.55262773357894        0.35821330237848        1.49412187699189
C           -5.76071141041192        1.48630637924487       -0.33409282377220
C           -6.48854954919614       -0.91084578445498        0.09080677323830
H           -4.85465810345709        2.09519328538687       -0.30950389111864
H           -5.97984068065559        1.25463909955527       -1.37596089026290
C           -6.91854448697721        2.28754633458047        0.27465629072335
O           -6.15088576794654       -2.14379457933697        0.51749064058384
H           -7.72743759407456        1.59424110994256        0.52194571292253
C           -6.48458817664300        3.01134922429805        1.54817229391270
C           -7.43695537411422        3.30231238171627       -0.74298508353601
H           -5.69503336745152        3.72690359508261        1.32631294417065
H           -7.32337948186034        3.55239682894626        1.97984200203589
H           -6.11366641243614        2.31454653004283        2.29608762992853
H           -7.80531086071146        2.80533932866080       -1.63682875226906
H           -8.25043234420113        3.88538022999841       -0.31785798507440
H           -6.64146122885209        3.98575664049294       -1.03257896296894
N           -7.54634527603354       -0.64891744464947       -0.53581623642570
H           -8.48220985955528        0.48063830183789       -1.59034991216712
C           -8.52133421729592       -1.66398778547576       -0.86128910903303
H           -8.04843803963808       -2.58328972884171       -1.22964179496680
C           -9.40050363302529       -2.01054528106248        0.34523179630643
C           -9.41762071108370       -1.08690391346110       -1.96808856801340
H           -9.84270139641180       -1.10462010438057        0.75515204902256
H          -10.19356927012232       -2.68255761812685        0.02982606787179
H           -8.80078841266582       -2.49239560498651        1.11341649224654
O           -9.21619412039700        0.20582803757362       -2.19046535669468
O          -10.23117715631967       -1.74152881218063       -2.55858327061405
