42
 energy: -62.486133521300 gnorm: 0.000478835972 xtb: 6.7.1 (edcfbbe)
N           -1.64435154096061       -1.75756128167660        1.05648045192771
H           -0.64732044481453       -1.93298416485479        1.06183594969364
H           -2.11249535560030       -2.64990041903008        0.92430794161307
H           -3.01084304229726       -0.84540271691154        2.07111507568660
C           -2.01193371378256       -0.83878686958652       -0.01838559314921
H           -1.30943756449417        0.00366087227739        0.01582493553840
C           -1.99087311669060       -1.45252462442608       -1.41807414779021
C           -3.38510057594496       -0.27767472661789        0.32317346714637
H           -2.68812775858968       -2.28641117911483       -1.47323411211544
H           -2.28304809462508       -0.70428311100182       -2.14691288265069
H           -0.99278296019870       -1.81319259997201       -1.65816400448891
O           -3.73505438856152       -0.37396204067279        1.61189695324113
N           -4.08113258820718        0.25892287024937       -0.57966543895877
H           -5.17561831384682       -0.87790990597513       -1.92164078599582
C           -5.40893287872909        0.76334903147458       -0.27696421924388
H           -5.51047062112880        1.04915147670328        0.77468754047020
C           -5.68933008613322        1.96358134137774       -1.19390944419323
C           -6.38011046575962       -0.35667605194347       -0.56853573943039
H           -4.92582519073496        2.71863711394367       -0.99669496493728
H           -5.56683379411245        1.63546738032723       -2.22918214293140
C           -7.08078498240804        2.57908150715705       -1.01670913892743
O           -6.04516575421242       -1.16296881373720       -1.59243940113322
H           -7.83074391077023        1.79163523088979       -1.14284418909973
C           -7.25622174794649        3.19656401269970        0.36829377611991
C           -7.30773157669352        3.64069184787401       -2.09208372054905
H           -6.50653459340386        3.96706825551428        0.53735097652140
H           -8.24026755653158        3.65094122224380        0.45218899056604
H           -7.16562551805190        2.44544873541405        1.14762009149986
H           -7.21370402966000        3.21187390641344       -3.08719639418163
H           -8.30289404326712        4.06777771695776       -1.99739206210609
H           -6.57927876852389        4.44290052532971       -1.99315815401889
N           -7.42967389196958       -0.47598530682276        0.11579728877789
H           -8.68540629306099        0.31220091824405        1.16255830071148
C           -8.39910210707878       -1.51447179331546       -0.15452497176271
H           -8.54811831937761       -1.66689493837408       -1.23142337084460
C           -7.98519445615814       -2.84605837832701        0.48031243336677
C           -9.73047533576935       -1.06737795355640        0.46781592493742
H           -7.77369947506349       -2.70171988239731        1.53790628050495
H           -8.79493721622348       -3.56210083483081        0.37177015285454
H           -7.09413149683600       -3.22929082858131       -0.01098137343781
O           -9.62719376920394        0.02462164583681        1.21476104894725
O          -10.75968392178817       -1.66146300354454        0.30335371091361
