42
 energy: -62.486133530549 gnorm: 0.000477220766 xtb: 6.7.1 (edcfbbe)
N           -2.16374920701804       -1.41338214061248        2.06673104033339
H           -1.64648436956567       -0.68446151803858        2.54593294695986
H           -1.58985282090950       -2.24762102440287        2.04992728076508
H           -3.99337167639638       -1.02443554604912        2.47401638739843
C           -2.52052207067350       -0.99939860111970        0.71032547801601
H           -1.75798650683049       -0.37555206226627        0.22444234209669
C           -2.78821737646669       -2.22562422856580       -0.16224265597411
C           -3.80515524970088       -0.19526216239776        0.80718547792857
H           -3.56248304285519       -2.84703007168598        0.28066069308408
H           -3.11594135226608       -1.90429236465874       -1.14557642129853
H           -1.88109590808866       -2.81713575908161       -0.26857304023655
O           -4.51609340557161       -0.39659085768421        1.92986072601985
N           -4.13484883702091        0.56420059056409       -0.13931924912624
H           -6.98696459727745        1.70544701569246        1.73659759117447
C           -5.39556962067685        1.27802960903255       -0.10742152287579
H           -5.28415454548557        2.14655308132778        0.55909416676879
C           -5.69354107203697        1.74917935709823       -1.53761887598852
C           -6.52714361075753        0.40746316150366        0.39316593125332
H           -4.82894195685657        2.31066082275838       -1.89263864262021
H           -5.78784055005472        0.85235657847810       -2.15045372048700
C           -6.96383674190047        2.59550687169262       -1.66668601688021
O           -7.32747386144681        0.87995467562331        1.37209264887861
H           -7.78000222012014        2.08815113582826       -1.13946354495060
C           -6.77966498944551        3.98922762136645       -1.06880551026777
C           -7.35104483295103        2.71435143967425       -3.13950697714744
H           -5.98312745025636        4.51762240065977       -1.58825695509003
H           -7.69566339293257        4.56734444708993       -1.16881251039667
H           -6.52575777744485        3.94488719714995       -0.01228841303423
H           -7.54269547767225        1.73277408279573       -3.56559753608014
H           -8.24860116173211        3.31815671990578       -3.25182786305270
H           -6.54819961135857        3.18351669704188       -3.70380803030610
N           -6.69280299304683       -0.72029873973531       -0.14056840391185
H           -5.85161802982222       -2.11268852930112       -0.89295930208721
C           -7.71617768163173       -1.63938208641288        0.29203950763834
H           -7.92742017776647       -1.55358225106534        1.36567343455820
C           -9.01494229500209       -1.42701470371475       -0.49218683113969
C           -7.18937175827233       -3.05246025012662        0.00288165517725
H           -8.81152382913081       -1.45324325342688       -1.56081414094974
H           -9.71977418154102       -2.21514223258387       -0.24270026683547
H           -9.44692798503893       -0.46204147410074       -0.23781796007720
O           -6.08257436209691       -3.06070832599066       -0.73226497252874
O           -7.72703266596226       -4.05006110345956        0.39651688968063
