42
 energy: -62.486133508621 gnorm: 0.000480330343 xtb: 6.7.1 (edcfbbe)
N           -0.78762685657275       -0.02298997844812       -0.84871661301649
H           -0.01000669570978       -0.46608334923660       -1.32275712246398
H           -0.52797683128581        0.09049479322967        0.12743018622818
H           -2.00224895609567        1.44502462230654       -1.14405786776872
C           -1.99819246702031       -0.83606055314303       -0.95145934581347
H           -2.11119142911246       -1.11111482695006       -2.00904330913121
C           -1.98773057971803       -2.10671448123689       -0.10371304660262
C           -3.17540216713517        0.07854499004665       -0.62080654827773
H           -1.96679383298773       -1.85521203081464        0.95472887255636
H           -2.87683617279576       -2.69555895919623       -0.30478102708695
H           -1.11102809376244       -2.70613813640330       -0.34212064208522
O           -2.94282408272176        1.37383256200603       -0.88116660321100
N           -4.21903264041849       -0.43256379097600       -0.14721644017710
H           -5.09681681779416       -2.02878839110969        0.48170987073939
C           -5.47626474368288        0.21603380497703        0.16364744368566
H           -5.44333836152293        0.46639161110270        1.23470363169571
C           -5.85589251632525        1.46527398996797       -0.63772387148804
C           -6.50100068648556       -0.89858269676915        0.00480278945052
H           -4.97605659650100        2.09588710487577       -0.75449454177967
H           -6.17604600857435        1.14258342225029       -1.62981795523942
C           -6.96636181200475        2.29189308140008        0.02398755774080
O           -6.06379409975060       -2.11301217785648        0.37148031640979
H           -7.73263764765685        1.61028403988314        0.40335071435605
C           -6.41927022994583        3.11412276457069        1.18962385526655
C           -7.60196700506932        3.22233003764381       -1.00735918709098
H           -5.66527678744372        3.81513363719832        0.83693982345084
H           -7.21928583350454        3.68039377681428        1.66090958561512
H           -5.96656431998594        2.47895365752825        1.94755641733189
H           -8.03878789598184        2.65758730593035       -1.82718391448609
H           -8.38750316313135        3.81810779748516       -0.54877251846199
H           -6.85386903208414        3.89893108103933       -1.41562687338300
N           -7.64305231973835       -0.66688369783701       -0.47074036966109
H           -8.73798544787861        0.40509487522925       -1.43122520230781
C           -8.62062548780704       -1.71627077920616       -0.64718337892197
H           -8.16877164730791       -2.63651884967079       -1.03944872494993
C           -9.34031504325085       -2.04176317876340        0.66616706047097
C           -9.65745446480571       -1.20075424493379       -1.65627840485674
H           -9.75804766832224       -1.13343814865032        1.09613759600715
H          -10.14448199981591       -2.74541677835595        0.47048081634492
H           -8.63905952382504       -2.47935484442018        1.37240609233815
O           -9.52585870520233        0.09027385543633       -1.93576711910478
O          -10.51291459237987       -1.89597880757977       -2.12966701794100
