42
 energy: -62.486133510464 gnorm: 0.000479971751 xtb: 6.7.1 (edcfbbe)
N           -1.30350068411268       -0.75809175626750       -1.46881285151718
H           -0.46907373156185       -1.32326583452417       -1.56739103393690
H           -1.00787112274795        0.20988366040272       -1.37519245373502
H           -3.02461570826754       -0.50241168735129       -2.29986425209650
C           -2.07373468627392       -1.15729366851264       -0.29274845137833
H           -2.15136402440676       -2.25292392884092       -0.31483439160828
C           -1.47854461463162       -0.72336481529136        1.04455637455831
C           -3.48322067602401       -0.60707273173982       -0.47747106668644
H           -1.35922256835274        0.35790388084884        1.06673396712625
H           -2.14978585891564       -1.00787687599700        1.84768336910368
H           -0.50856457818048       -1.19123575933387        1.19953882519424
O           -3.81847714925473       -0.34138614750227       -1.75045542052840
N           -4.22606546032603       -0.46438657354684        0.53100411646555
H           -5.14703848483117       -2.19675503825937       -0.33235793412753
C           -5.57923223616512        0.05289335462544        0.43973414368207
H           -5.96512916127855        0.00926180489251        1.46683677733067
C           -5.51783681721528        1.52583278471785       -0.00897246344717
C           -6.48312372015413       -0.83193290096735       -0.40111556139601
H           -4.81381586271936        2.01444789881316        0.67113750763403
H           -5.08926420234765        1.55268605021920       -1.01206001639447
C           -6.82573855863520        2.32006647429326       -0.02121779711401
O           -6.03396268761639       -2.06811622284517       -0.69736181755620
H           -7.43890682270008        1.95446672588433       -0.84677852466597
C           -7.60716047051334        2.18218894554821        1.28173926963142
C           -6.50655146852255        3.79141620358392       -0.28685564043211
H           -6.99287410396629        2.48335192507981        2.12818132777965
H           -8.48860989363569        2.81861738247931        1.25657048542572
H           -7.93150877206991        1.15622583768828        1.43265336648292
H           -5.94315279581685        3.90288961392678       -1.21035878307176
H           -7.42529739260493        4.36548382237063       -0.37662498816221
H           -5.91865240620015        4.21023125168603        0.52776892781801
N           -7.63851974141579       -0.44300850518409       -0.72065422361486
H           -9.06149346738411        0.77150511027606       -0.68636321816977
C           -8.53375755058916       -1.30553172138410       -1.46310042851848
H           -8.03776975009052       -1.75177935627309       -2.33326310330216
C           -9.10635739101418       -2.42965470543483       -0.58882624147036
C           -9.71408065777509       -0.45116904321321       -1.94043219329913
H           -9.57330583058763       -2.00859248975335        0.29985347577494
H           -9.85203394722442       -2.98023952134840       -1.15543624962215
H           -8.31191254052984       -3.10640671632821       -0.28590780241456
O           -9.83486407693670        0.69984922643748       -1.28859548028509
O          -10.48001997862767       -0.80831514479415       -2.79192109063715
