42
 energy: -62.486143125476 gnorm: 0.000732949260 xtb: 6.7.1 (edcfbbe)
N           -1.50706977449418       -1.05171812082167       -0.19133371311612
H           -0.94462027835447       -1.89170182055332       -0.24951110280756
H           -1.07257533190337       -0.43936272000240        0.49389602473426
H           -2.33475060635243        0.19422708071828       -1.34785703934093
C           -2.87493465938634       -1.36653809600455        0.22484840722071
H           -3.20544009288168       -2.23074903519253       -0.36459924388396
C           -3.02791505422361       -1.68696722801956        1.70880521017890
C           -3.76313012439375       -0.19617330556049       -0.19946192369630
H           -2.67123053466457       -0.85336129893098        2.31092626887368
H           -4.07463266281526       -1.85303948405038        1.93678825098662
H           -2.45942874052817       -2.57846127501313        1.96463326468826
O           -3.22996730604638        0.55838239891315       -1.18085445618636
N           -4.87320562367888       -0.07433735072607        0.36414376337262
H           -8.28449015739531        1.63146155208174        0.03671367847760
C           -5.92940286884080        0.87449984635580        0.13536153967534
H           -6.00687240261205        1.46635032878944        1.05928199725915
C           -5.72185133029190        1.81405132978986       -1.07371532006323
C           -7.19497169847605        0.04203711733882        0.02991510527636
H           -4.73123235727443        2.25583659511752       -0.95832509620335
H           -5.69710081450242        1.19418367628163       -1.97275477008026
C           -6.71740053733751        2.96202941935282       -1.28881088201176
O           -8.38765809923721        0.67525346395804       -0.03621444423304
H           -7.70147921697909        2.56399800325425       -1.56230212164489
C           -6.84680744405074        3.86114003129014       -0.05845912457082
C           -6.23737795754878        3.79900079866350       -2.47640953638028
H           -5.87137330037232        4.25861943137270        0.21448789418955
H           -7.50605725731067        4.69943353768931       -0.27457321874443
H           -7.24904835034558        3.33718316071117        0.80762261022954
H           -6.14074235713705        3.18151370720795       -3.36606446479374
H           -6.94309493074787        4.59903375560447       -2.68908713791150
H           -5.26815763407293        4.24339498632426       -2.26161050475803
N           -7.09709890828104       -1.20749104143518        0.10770970202168
H           -6.05338346406307       -2.55443595387826        0.57106168602603
C           -8.21818491598968       -2.10974414057861        0.09596925942902
H           -9.02012729091642       -1.77745359951778        0.76872806152774
C           -8.79878745723160       -2.29495404070089       -1.30943989859522
C           -7.68122444019568       -3.46309847130834        0.59696687553680
H           -8.00542071651000       -2.56236668486919       -2.00462385703977
H           -9.53800079150126       -3.09085438689317       -1.28912328078927
H           -9.26738002772872       -1.37234713649069       -1.64283320032484
O           -6.36828042319275       -3.47101200499538        0.78341860756290
O           -8.38428331385338       -4.41748868435581        0.78562100047474
