42
 energy: -62.486133517282 gnorm: 0.000479303715 xtb: 6.7.1 (edcfbbe)
N           -1.28828438122432        0.21795156003549       -0.42772627621059
H           -0.34356979785198       -0.13440834465752       -0.31801314459507
H           -1.67201340541270        0.41282582992320        0.49080439159965
H           -3.92447844232388       -0.73572805993553       -2.77437738331921
C           -2.12211009617891       -0.76244889882313       -1.09309901791536
H           -1.87388441516532       -0.73456960781664       -2.16530499254370
C           -1.93588307583749       -2.20530134409989       -0.58112769215478
C           -3.57447119443030       -0.38654551634794       -0.90484478725570
H           -2.12108030696975       -2.23791436628059        0.49085341871444
H           -2.62261551828486       -2.88738619941935       -1.07888249839772
H           -0.91825653073027       -2.53936366626279       -0.77257204362016
O           -4.39932653670239       -0.49701154588466       -1.96860309052399
N           -3.96306007683233       -0.04489701706847        0.24393462004852
H           -5.01420386988033       -2.07043932861083        0.60862084407204
C           -5.35337004071213        0.29075999809431        0.49700603954765
H           -5.45319792736722        0.29157040598698        1.59181484657304
C           -5.68935683420281        1.68424163699525       -0.04896835510184
C           -6.27114166346187       -0.78429698601495       -0.04513322528948
H           -4.82170331605842        2.32628043551124        0.11891044448791
H           -5.83915006242552        1.59179261694019       -1.12509295683784
C           -6.92505267261081        2.32010892750409        0.59797899572970
O           -5.88296572234545       -2.06018813563774        0.18400544950212
H           -7.70220004663435        1.55564731436710        0.68455508127898
C           -6.60617810483642        2.85872262930426        1.99125211996669
C           -7.44606029974236        3.45161653205265       -0.28647809493995
H           -5.85305760931654        3.64180952120635        1.93090162476998
H           -7.49983511314058        3.27856454081202        2.44711701590788
H           -6.23185089153326        2.07444335539731        2.64446393441705
H           -7.73094988966943        3.08139785390353       -1.26822791616779
H           -8.31752042160483        3.91727379286461        0.16750564901287
H           -6.67972578415718        4.21337688448985       -0.41477006401918
N           -7.34186802014159       -0.48345593340243       -0.62873440464361
H           -8.23438022623733        0.73572173146654       -1.62444522643649
C           -8.24213047799700       -1.48000653146981       -1.15692719992155
H           -7.70982926045327       -2.34984739479854       -1.56186128853858
C           -9.23121278069842       -1.95446470293437       -0.08672632219101
C           -9.03719774051270       -0.80998785031014       -2.28840008728638
H           -9.74249826782776       -1.09991685945962        0.35216012562038
H           -9.96518671867361       -2.61307784468433       -0.54232994720197
H           -8.70066992577149       -2.49065662198032        0.69649657532450
O           -8.88417945316041        0.50760206272707       -2.33168089101314
O           -9.74047243177335       -1.42049453377666       -3.04439607783422
