42
 energy: -62.486130289794 gnorm: 0.000817200697 xtb: 6.7.1 (edcfbbe)
N           -1.56589168564703       -0.56548626223579        0.90118038550413
H           -0.74901048367673       -1.14839755699600        0.76153697103778
H           -1.80530107346348       -0.61159114694417        1.88822463977396
H           -2.25522659432460        1.18632759485389        0.42313372424893
C           -2.69225141575920       -1.05256521523778        0.10332746357357
H           -2.32471625947702       -1.18097076434928       -0.92392280594403
C           -3.30511379376311       -2.36367475965862        0.58679703455469
C           -3.72169720291274        0.06780022279673        0.05981002774027
H           -3.66462914856149       -2.25834591123450        1.60742342563074
H           -4.14829148614203       -2.62248993936129       -0.04322603092589
H           -2.56789751705572       -3.16311957887940        0.55017181395320
O           -3.20040892958794        1.30531900523337        0.20151078495022
N           -4.93167668412611       -0.22171015874753       -0.08999953197033
H           -7.97850792227911        1.20255379135710       -1.64718861995149
C           -6.00568217705878        0.74003723729402       -0.18390613860906
H           -6.12523682294213        1.22661536510134        0.79545413000706
C           -5.78798848014231        1.82631252234102       -1.25323716685088
C           -7.25393842427477       -0.09744479109984       -0.42863463940746
H           -4.72678672669201        2.07331404864603       -1.27046866409833
H           -6.02928506325243        1.41341755814116       -2.23833744591149
C           -6.57323411163720        3.12309764883388       -0.98943585688084
O           -8.22136649470173        0.35584171771767       -1.25178839445416
H           -7.56483523090943        2.88961781467657       -0.57983174276492
C           -5.84244942307603        3.98698597242618        0.03658281454528
C           -6.75724883013628        3.90252443705395       -2.29137759076277
H           -4.88251599461670        4.31024331463549       -0.35937180015369
H           -6.43037125523309        4.86863459074583        0.28143792466790
H           -5.65994556454924        3.43184509330334        0.95325356167300
H           -7.33179933802990        3.33242510243192       -3.01996037710692
H           -7.28100316657067        4.83696718871236       -2.10402881481723
H           -5.78891103494850        4.13593004579837       -2.72860374944233
N           -7.32980601854398       -1.18675458239876        0.19134081930969
H           -6.44781123485760       -2.33956704414606        1.18891783394111
C           -8.40761411350290       -2.13545866792079        0.09157674299842
H           -9.35376721275892       -1.69876582980760        0.43631382970345
C           -8.60682245115365       -2.69526216174748       -1.32068674400858
C           -8.03584287369365       -3.29795848427964        1.03323865649140
H           -7.66055000118806       -3.07204806861263       -1.70399044257925
H           -9.32496507761927       -3.50959780440175       -1.28187860356645
H           -8.97488187654553       -1.91819945271623       -1.98494863412429
O           -6.81441206646232       -3.19465267780518        1.53643514397829
O           -8.77650003134690       -4.21377531952212        1.26609136466441
