42
 energy: -62.486133506577 gnorm: 0.000480945815 xtb: 6.7.1 (edcfbbe)
N           -2.34279971648622       -1.79258450174252        1.58013085012674
H           -2.22753211627961       -1.19999455490249        2.39555906922478
H           -1.48960745733093       -2.32456932086961        1.45600283233127
H           -4.23356580827333       -2.10883492372065        1.56254687003155
C           -2.63576642744433       -0.99085347143196        0.39467640804964
H           -2.03422741116064       -0.07559911305850        0.31266534302630
C           -2.43360914889841       -1.83888262127796       -0.86154351318718
C           -4.10780998152351       -0.59597854231642        0.46933887171426
H           -3.04377211448286       -2.73804783391424       -0.80827194174711
H           -2.72222842537089       -1.26613544598192       -1.73760582639411
H           -1.38976388035343       -2.13016572731915       -0.95928394966310
O           -4.85831279167445       -1.46401978240602        1.16473583681855
N           -4.44763936563952        0.46806947953685       -0.09798442582769
H           -7.08389117641945        0.71925244606763       -2.31836013205258
C           -5.76237121483022        1.05226936895638       -0.24634620160445
H           -6.01555649996806        1.50971544113557        0.72192164640004
C           -5.62849329024296        2.16539095022892       -1.29344710474200
C           -6.87636803440128        0.05507244204576       -0.52247901185711
H           -4.71673086065223        2.71250329426342       -1.04959578171110
H           -5.45714844398472        1.72302228285463       -2.28056674496373
C           -6.81298893153516        3.14317697193772       -1.32889839447900
O           -7.44548335609281        0.02786041528959       -1.74990229951299
H           -7.75538100682716        2.58741615348562       -1.25521113875186
C           -6.75117249378637        4.11654126692539       -0.15366713122778
C           -6.81059903521091        3.92002811944693       -2.64525686085103
H           -5.84072316918736        4.71003037565616       -0.20156243770154
H           -7.60300411621455        4.79209594057284       -0.17766988316313
H           -6.76749541833576        3.58726165789890        0.79550213653010
H           -6.91698465951101        3.25348076342280       -3.49936699677140
H           -7.63270114311032        4.63125084628366       -2.66774360704969
H           -5.87890839859695        4.47069856518227       -2.75532897669061
N           -7.19672570795098       -0.75044932434891        0.38568940628218
H           -6.78723812785119       -1.56676444408007        2.00562503439718
C           -8.19765990042049       -1.77459623896176        0.22603901092216
H           -9.14250981769800       -1.36565471995302       -0.15246208178739
C           -7.73403499933782       -2.90162395628154       -0.70569627305081
C           -8.42636384638018       -2.38517501681592        1.61662553982389
H           -6.77562934162156       -3.28827672248253       -0.36460672011225
H           -8.46789563034793       -3.70273996194040       -0.69485322528635
H           -7.62502066907971       -2.52508522782962       -1.71945012745868
O           -7.43784026868210       -2.14813176871195        2.46687292699965
O           -9.39263701084009       -3.04299952922626        1.89216440270192
