42
 energy: -62.486133521826 gnorm: 0.000478068683 xtb: 6.7.1 (edcfbbe)
N           -0.74759714445850        0.00474353454887       -0.29302568593802
H            0.08942702783054       -0.19924691927363       -0.82512158823599
H           -0.61066931042914       -0.36040896475680        0.64543243724906
H           -1.93619946257258        1.48991033063054        0.04432051529169
C           -1.92224024848204       -0.61523754383477       -0.90309145460023
H           -1.88550050582457       -0.39406611312826       -1.97777579646549
C           -2.02266929161349       -2.12701238664529       -0.70772378311715
C           -3.14462899091261        0.11203212861045       -0.35696090318778
H           -2.08489780278743       -2.36713712988408        0.35208233836315
H           -2.91231051901229       -2.50109124914502       -1.20319181803203
H           -1.14916236268209       -2.62026842806207       -1.12946226323197
O           -2.90398115782147        1.35118758734400        0.09455318435941
N           -4.26066106353037       -0.46663044094522       -0.37295247301245
H           -5.14227406135276       -2.14245592380133        0.17315151105131
C           -5.49524147582204        0.14040603964065        0.08896764166164
H           -5.41782649953607        0.32483193983035        1.17091735576801
C           -5.85764044739066        1.45166622356745       -0.61875977916037
C           -6.54188498729658       -0.93835457257972       -0.12442147823751
H           -4.95910714551799        2.06383239924549       -0.69944579343161
H           -6.19437622242148        1.20417171592308       -1.62660838378082
C           -6.94020374810662        2.25723076339727        0.11032956761150
O           -6.11489960021720       -2.18721222216227        0.12800856544083
H           -7.71942854372066        1.56764163665117        0.44653274980674
C           -6.36470406862514        2.98017545086984        1.32660903653142
C           -7.56167534549064        3.27260464544112       -0.84695820638038
H           -5.59696252421939        3.68704860734907        1.01865553274524
H           -7.14763661318402        3.52804211791828        1.84588187677873
H           -5.91988097448945        2.28117988595329        2.03064923599782
H           -8.01914727896708        2.77691346685320       -1.69956636176937
H           -8.32852747829341        3.85276079291872       -0.33936112000364
H           -6.80142460848784        3.95901470237726       -1.21450535997245
N           -7.68554658343094       -0.65868554748887       -0.56962016963810
H           -8.77232153216249        0.49174751142902       -1.44556383578011
C           -8.67431937571438       -1.68257261888750       -0.81735904287132
H           -8.23271852013569       -2.57447069302015       -1.28072591410605
C           -9.38854470544294       -2.10023861288233        0.47247058304607
C           -9.71151545123574       -1.08384258051341       -1.77879146763742
H           -9.79748579666760       -1.22383691450701        0.97157518213418
H          -10.19850417013684       -2.78235198994954        0.23016225184650
H           -8.68595187522981       -2.59349733575083        1.13959596950268
O           -9.56648995339393        0.22253894898243       -1.96603591424845
O          -10.57886084255869       -1.73308810867229       -2.29393191433590
