42
 energy: -62.486133506310 gnorm: 0.000481218713 xtb: 6.7.1 (edcfbbe)
N           -0.86893002349343       -0.41459599816098       -0.32707006620978
H           -0.08130786774335       -0.73169380973046       -0.87949764801046
H           -0.78078985458312       -0.83152567296981        0.59592974000245
H           -1.82892489555106        1.21389225560231        0.10232900249284
C           -2.13303543492149       -0.82899084984815       -0.93731484404173
H           -2.07648524468541       -0.57799332308676       -2.00433847656937
C           -2.46605173670262       -2.31074134799353       -0.78719313151988
C           -3.22963219702376        0.04528059927272       -0.34942069684542
H           -2.46668752112362       -2.58926602115420        0.26494583717675
H           -3.45723355326868       -2.49103704865546       -1.18879341199100
H           -1.73824924498738       -2.92305195220089       -1.31571199519536
O           -2.80518154837188        1.22128564208089        0.15909605549284
N           -4.42030984350401       -0.35029851414432       -0.37807264164265
H           -6.90395985168759        0.19868033435554        2.09008223433844
C           -5.49420561109430        0.47430386351540        0.11767886436537
H           -5.23010055501930        0.89906737554560        1.10017894432620
C           -5.79048022044953        1.61922568045316       -0.86959691808081
C           -6.72382857877970       -0.39346652046735        0.23772309668830
H           -4.88602143145986        2.22102149742613       -0.97251621748939
H           -6.00913093972079        1.14840363826936       -1.82906122229288
C           -6.96223819697430        2.51736875109723       -0.46107683654203
O           -7.38310631253067       -0.35073887057775        1.45819084814647
H           -7.83205975739067        1.88947486588790       -0.23741637204256
C           -6.63040582032581        3.36484064204864        0.76612768035656
C           -7.33124319592690        3.42716483393045       -1.63116074960582
H           -5.76146706306447        3.98874095618018        0.56753319249374
H           -7.46870306301379        4.01196483589456        1.01405567112510
H           -6.41389453025078        2.75108910840901        1.63782115816674
H           -7.61814814934309        2.83581457234941       -2.49683610440910
H           -8.16636703370128        4.07041963773611       -1.36431613097847
H           -6.48600204213052        4.05511073422467       -1.90502380474810
N           -7.09573757776199       -1.07182742151155       -0.74051639422867
H           -9.06179125055425       -0.34715539917523        0.77226058883580
C           -8.22680449996772       -1.95805975668779       -0.81421362026657
H           -8.12164967555626       -2.48356354789632       -1.77041218420932
C           -8.30260644345945       -2.98981332639405        0.31970044924277
C           -9.55824953101205       -1.19403660987542       -0.88006088936102
H           -8.47123327130201       -2.51367025999163        1.28312025349665
H           -9.11371774465497       -3.68648209363522        0.12306478816682
H           -7.36517696779356       -3.53940217744828        0.36498981931849
O           -9.79395437456132       -0.35206011466869        0.12690585679086
O          -10.35108859773966       -1.35570483382040       -1.76317856854828
