42
 energy: -62.486133518808 gnorm: 0.000479031514 xtb: 6.7.1 (edcfbbe)
N           -2.21541072723559       -1.50028477752458        1.53077188634296
H           -1.73292228051819       -0.69444512126819        1.91428723967478
H           -1.55205314729005       -2.26336833329369        1.47191217483864
H           -4.04739270277920       -1.24672656075848        2.11733535441506
C           -2.77522875945633       -1.19359743159167        0.21662298082226
H           -2.10974819532108       -0.60509457675354       -0.42975221332678
C           -3.15149634423472       -2.49343378231386       -0.49684346625059
C           -4.05467593049215       -0.40637893061569        0.44354546281926
H           -3.81884161987563       -3.08164936316015        0.12968328920450
H           -3.65278445235442       -2.26389293605546       -1.43242623064179
H           -2.26125761546586       -3.08193366491791       -0.70868679654804
O           -4.65253753505591       -0.65713107501821        1.61877980499781
N           -4.42765488196955        0.41002220245722       -0.43523175399389
H           -7.33397711408217        0.86578528825123       -2.23890010630207
C           -5.70370616677468        1.09899299488902       -0.38638293599079
H           -5.84275116180179        1.53843194108876        0.61362210976481
C           -5.66681403861626        2.20866139946330       -1.43959532580251
C           -6.83087761039167        0.09125895378061       -0.55207247960810
H           -4.71170541723053        2.72303599677008       -1.32047114213356
H           -5.64113153272027        1.76013698166386       -2.43788673338848
C           -6.80779518088790        3.23111273117757       -1.32045334713771
O           -7.59611103348213        0.13583960372846       -1.66374237311346
H           -7.74872809265023        2.71369560462100       -1.09736151855110
C           -6.53732817344387        4.21611127503225       -0.18482782818456
C           -6.97131781664981        3.98991743246550       -2.63725291917201
H           -5.62747798196237        4.77919270447052       -0.38156789885501
H           -7.36164095606040        4.91897670317825       -0.08898287429502
H           -6.42280133412957        3.69787332235753        0.76378188007946
H           -7.22632732712372        3.31711634983539       -3.45430213069049
H           -7.76096172572923        4.73259020793984       -2.55240947244056
H           -6.04637062536097        4.50216658843438       -2.89304255581019
N           -6.98628856461399       -0.78322798954769        0.33701742799228
H           -6.48818286005645       -1.45891789476142        1.97557866209225
C           -7.97801769321394       -1.82612292481840        0.25773431516217
H           -8.97880390138603       -1.41775325798663        0.06652068831874
C           -7.65556501165402       -2.86377066923200       -0.82394226002938
C           -7.98767318809526       -2.53770773410481        1.62063607315958
H           -6.64407870018263       -3.24130160267685       -0.68547363536957
H           -8.35763910306036       -3.68912964207442       -0.74601676001332
H           -7.73342604739253       -2.41310957402297       -1.80972404618431
O           -7.00641351749536       -2.16954483090201        2.42977917529737
O           -8.80027518445742       -3.37442145131296        1.90867553809193
