42
 energy: -62.486133501406 gnorm: 0.000480322275 xtb: 6.7.1 (edcfbbe)
N           -2.32647742396515       -0.57021023866775       -0.28796003319652
H           -2.15610455940102        0.37487772336577       -0.61530692022494
H           -1.92707619739580       -1.21298054593587       -0.96270993122624
H           -2.52354262663685       -0.53752189303625        1.76661239396079
C           -3.75732681495175       -0.82043608724205       -0.11675683744921
H           -4.36242173747863       -0.54519273293427       -0.99385265372610
C           -3.95665048097199       -2.30451726031710        0.19213098233024
C           -4.18871930888472        0.00029112291754        1.10205903658428
H           -3.35650413078971       -2.59563250162952        1.05123292780250
H           -5.00003252044915       -2.49822790309926        0.41542813325615
H           -3.65456513222961       -2.90927968716331       -0.66138750344545
O           -3.32162693630230       -0.09643558547097        2.11285084380507
N           -5.19562436676500        0.73698561091709        1.27267127527190
H           -7.63234479940771        1.01525322156434       -1.67502404870733
C           -6.19562809167727        1.06033836267728        0.29651772414472
H           -6.94502544033516        1.63422871770078        0.86521000130425
C           -5.63239288194119        1.97712263354973       -0.82074474609504
C           -6.96791689214739       -0.11855414488564       -0.26362455013878
H           -4.62663881540188        2.28121283545712       -0.52418885554480
H           -5.53480248638381        1.41590934579274       -1.75584104240951
C           -6.46461594418272        3.24715757504878       -1.05924182819175
O           -7.71157670657682        0.10188184569553       -1.37161725522780
H           -7.53381594262195        2.99431847092718       -1.06941423401279
C           -6.22856250150048        4.25580207702440        0.06222646406221
C           -6.10742591801230        3.86597383731977       -2.41007728685951
H           -5.19975115986403        4.60760658342339        0.03885306506567
H           -6.88784811976614        5.11301183534263       -0.05154200684107
H           -6.40952126549694        3.80657012551283        1.03513120546255
H           -6.32190444826975        3.18098617207769       -3.22877553676506
H           -6.67827609927700        4.77704751470047       -2.57130559959108
H           -5.04948383185052        4.11676975279255       -2.44151692743433
N           -6.99227797655776       -1.21152143317589        0.35916196024572
H           -6.77168757053390       -2.06860826839766        1.97879365110550
C           -7.82959113036005       -2.31552388066161       -0.05643579956852
H           -8.87191889628644       -1.98096794256939       -0.15852961144141
C           -7.40877572235645       -2.96461450053743       -1.37753249047999
C           -7.79303821187074       -3.36062834311848        1.07136708768430
H           -6.36055371075819       -3.25169433413393       -1.34285912086948
H           -8.01079471400946       -3.85539552124403       -1.53289385176932
H           -7.56342317864416       -2.27444190036373       -2.20242085346292
O           -7.12315899796602       -2.97190710210347        2.14946293797023
O           -8.32676695193332       -4.43104850225525        0.98080761026820
