42
 energy: -62.486133517002 gnorm: 0.000479178312 xtb: 6.7.1 (edcfbbe)
N           -0.87276309637440       -0.43115845690893       -0.27375123050697
H           -0.07764632334409       -0.74829678616077       -0.81545851065863
H           -0.81399483633550       -0.87342404227365        0.63968890084165
H           -1.83360988967612        1.21611858289860        0.15284864888605
C           -2.12817993064648       -0.80852460369552       -0.92408869050433
H           -2.05155873430019       -0.50210544543184       -1.97561545509471
C           -2.46956805173249       -2.29435955672747       -0.85934486842044
C           -3.22841714306503        0.04299093735778       -0.31124406254146
H           -2.49590757030362       -2.62815615765016        0.17596961807544
H           -3.45152177724342       -2.44925809303361       -1.29278497891115
H           -1.73175965595783       -2.88087609535808       -1.40301731420737
O           -2.80942145270009        1.21690489783547        0.20686765153105
N           -4.41336131581080       -0.36955147075116       -0.32366044009822
H           -6.87958748746130       -0.15209311919613        2.11049889766631
C           -5.50098908472340        0.43405435113276        0.18122672127019
H           -5.27434717255201        0.78099630842252        1.20220082781957
C           -5.75514681790737        1.65210365362777       -0.72594073588763
C           -6.73605314943478       -0.43575543822254        0.18462007153170
H           -4.84918532866886        2.25948455918611       -0.74551497132722
H           -5.93660031399830        1.25763133529669       -1.72655064228994
C           -6.94381575407776        2.51750617536988       -0.29572178268168
O           -7.37809772223354       -0.58118974719226        1.40483620262549
H           -7.82225545762619        1.87590182147113       -0.16385154307091
C           -6.66809558158046        3.25734918371214        1.01223673404168
C           -7.25910768894553        3.52330114780414       -1.40116538053648
H           -5.77967566366062        3.87766027781478        0.91354073212664
H           -7.50902950417639        3.89914971906909        1.26493504076390
H           -6.51306818461975        2.57058022789521        1.84139645494662
H           -7.50492058470750        3.00729965309797       -2.32564980105706
H           -8.10641592903412        4.14440162491502       -1.12055560765435
H           -6.40262044125562        4.16953023318761       -1.58183646496901
N           -7.12230923518152       -0.95633453811681       -0.88119660602839
H           -9.06839252770669       -0.46444049080700        0.74309135618540
C           -8.25452228454472       -1.82353026704285       -1.07231432461219
H           -8.15922565537218       -2.20309138089067       -2.09612564594520
C           -8.32313142039900       -3.01067285826448       -0.10185175288737
C           -9.58393529578384       -1.05604590818622       -1.01166660244733
H           -8.49217676599231       -2.68273027701998        0.92138379588022
H           -9.13172789537150       -3.67435404996027       -0.39802951524237
H           -7.38343729460768       -3.55681601227015       -0.13897062162939
O           -9.80582171992213       -0.37127929440233        0.11119224141431
O          -10.38478952367685       -1.08094634662370       -1.90169123457996
