42
 energy: -62.486133510589 gnorm: 0.000479987160 xtb: 6.7.1 (edcfbbe)
N           -1.85360439303823       -2.18557098575794        0.20490692127724
H           -1.70463727806189       -2.14555165336015        1.20802028277608
H           -0.99728282098114       -2.51586658311560       -0.22426123119604
H           -3.76795062613176       -2.50374734472123        0.05606236966803
C           -2.21841563726506       -0.86949609508900       -0.31659144311621
H           -1.62888513410822       -0.04277507600235        0.10305187167956
C           -2.07867935220628       -0.86333969276958       -1.83931062859782
C           -3.68472361766447       -0.63533060713907        0.01742281627793
H           -2.67418719038936       -1.66420596048442       -2.27214863525852
H           -2.42747133136388        0.08692044928303       -2.23165205855204
H           -1.03851547862690       -1.00490267526207       -2.12591598571736
O           -4.40293371916180       -1.76362914742841        0.14686169049342
N           -4.07425431012530        0.54833481577895        0.15609408532480
H           -6.37988499988217        0.26978978458333        2.42945945069314
C           -5.43115908227508        1.00847880392150        0.31070708956412
H           -5.41317074000099        1.66695282613568        1.19197441041981
C           -5.76646299161289        1.85073165238616       -0.93145148344228
C           -6.48332505149278       -0.05926681307620        0.50923670561440
H           -4.93131568798585        2.52940461296895       -1.10991313342165
H           -5.84065801922392        1.15856050956927       -1.77003871871953
C           -7.07156016945957        2.64392393109620       -0.81141391550722
O           -6.90598552555112       -0.25431730821649        1.81385872741474
H           -7.86380645532609        1.96650621595765       -0.47506437097880
C           -6.95051613458505        3.79744487270463        0.18250315200536
C           -7.46141589334262        3.18434861707100       -2.18564225928716
H           -6.15114152344010        4.47190638848839       -0.11742092134042
H           -7.87993203924413        4.36113937616713        0.21688794417124
H           -6.73980453453345        3.44231153271400        1.18844279474391
H           -7.60322584654772        2.36785544362489       -2.88867486932283
H           -8.38943176606804        3.74769209194968       -2.12410884973303
H           -6.68384314272857        3.84178909363392       -2.56912236698562
N           -6.90411463891286       -0.70496709408112       -0.47397244190828
H           -8.66683161171799       -0.46505189111977        1.38551979481305
C           -7.86998680083663       -1.77143217274803       -0.47040259410945
H           -7.83975366125300       -2.19128672862284       -1.48250059099944
C           -7.59245162087422       -2.88798049655077        0.54519286572608
C           -9.29654980782345       -1.24827045193756       -0.25203386301687
H           -7.72440076895553       -2.54151746071922        1.56786813658723
H           -8.26889703655172       -3.71933199299963        0.36304156295048
H           -6.56592498088323       -3.22497156323947        0.42597300345351
O           -9.48732390765254       -0.54179048993071        0.86355198476162
O          -10.19177593069602       -1.47151614390425       -1.01606241861398
