42
 energy: -62.486133511667 gnorm: 0.000479375354 xtb: 6.7.1 (edcfbbe)
N           -2.34278920974667       -1.23911237330129       -0.47941357610940
H           -2.15000321240186       -0.47723041348877       -1.12117299737664
H           -2.14038036998214       -2.11039771407431       -0.95649403350042
H           -2.12464779730002       -0.50311608743717        1.39047213186083
C           -3.73542153896776       -1.20760758619049       -0.02729034599937
H           -4.45816016534467       -1.14159019390155       -0.85372363575321
C           -3.99815265515809       -2.46423127939994        0.80229668628804
C           -3.84740165841987        0.02392006104855        0.87610971364171
H           -3.30828870176773       -2.50814598917636        1.64228100967519
H           -5.01265850812127       -2.45731597792602        1.18454974754909
H           -3.85255219705044       -3.35487840793380        0.19295772175454
O           -2.79351061583788        0.13893046540922        1.69581896659919
N           -4.69846056089511        0.94604886490373        0.93033994948311
H           -7.05500402541049        0.95743592302141       -1.99952120367783
C           -5.90010075009213        1.17657966777534        0.18903244629603
H           -6.58371782826915        1.62436161811537        0.92829281082013
C           -5.57911193849026        2.25723851688559       -0.86774295249781
C           -6.66875082395519       -0.00955907154120       -0.37665092979100
H           -4.72809391721479        2.82261094288589       -0.48364729925502
H           -5.24099378363077        1.77891604273896       -1.79377739826208
C           -6.73100854567978        3.24009677019818       -1.14063840404170
O           -7.22408827824978        0.09354275339366       -1.60237180967396
H           -7.69085191023138        2.70722667904688       -1.14247227765119
C           -6.79368302508313        4.30111080748291       -0.04405819642465
C           -6.54475044034376        3.90765328389573       -2.50313446360058
H           -5.89118659544669        4.90759814088621       -0.05583877671762
H           -7.64970968774514        4.95441275330785       -0.19538200871737
H           -6.88158824309033        3.84230153012443        0.93724625155791
H           -6.55391064786330        3.17782589035745       -3.31156353495174
H           -7.34247610571799        4.62336620486513       -2.68608109562765
H           -5.59628819381568        4.43917311664849       -2.53397445271003
N           -6.82618810121245       -1.03741887998398        0.33711769306033
H           -6.98673877816125       -1.67835034361898        2.04475545886718
C           -7.65986646824366       -2.13906099290649       -0.09690019090486
H           -8.63588155864178       -1.76287660852979       -0.43690669096942
C           -7.05889727100738       -2.97906512710770       -1.22601412073148
C           -7.91761105262077       -3.02585648441220        1.13177124882029
H           -6.06887645435175       -3.33120958149994       -0.94916193461092
H           -7.70109203007608       -3.83824691792889       -1.39769484583073
H           -6.99102219332981       -2.39112037617043       -2.13764443124354
O           -7.43665366437867       -2.52634797152837        2.26538423502338
O           -8.50555521524822       -4.06902436057341        1.07106095378756
