42
 energy: -62.486133507510 gnorm: 0.000481028640 xtb: 6.7.1 (edcfbbe)
N           -1.17297517020373       -0.76923336328250       -0.96305537458465
H           -0.46530760607004       -1.48472561449546       -1.07652594642752
H           -0.75911614120414       -0.01253865692119       -0.42468007658228
H           -2.44662067952952        0.15113895325718       -2.03150011949304
C           -2.34266142215089       -1.29444760684829       -0.25800918889913
H           -2.59575646651952       -2.25813110385494       -0.71918411539109
C           -2.15316842199237       -1.48929294528125        1.24310996354395
C           -3.50211449582883       -0.35142366759990       -0.55819906446493
H           -1.87376839288624       -0.54737791873055        1.71085989917275
H           -3.08720831851339       -1.82348401132846        1.68139191001705
H           -1.37666995352181       -2.22661753264202        1.43642666116135
O           -3.35906573896627        0.33002448060915       -1.72126839107714
N           -4.48897997969843       -0.33234876674860        0.21370648705019
H           -5.66176577372051       -0.19015575377165       -2.19962953899636
C           -5.65840753273200        0.51067322727024        0.09179549338261
H           -5.99599908227710        0.65080159653001        1.12421791655126
C           -5.48732193683096        1.88166934459668       -0.57657779602656
C           -6.70597568750785       -0.32955252242749       -0.60443886167457
H           -4.74538096519864        2.44342929711903       -0.00401194226812
H           -5.09526053773059        1.76799051445310       -1.58917693710931
C           -6.79469189819858        2.68086607637970       -0.64833976703390
O           -6.48668405394522       -0.60240263266898       -1.90615058016414
H           -7.54169682073562        2.08326725070604       -1.18359074047507
C           -7.34664763392774        3.01130743939127        0.73592543849152
C           -6.55158254089930        3.96838558545318       -1.43524598334089
H           -6.59374993210342        3.52082833625361        1.33388309909971
H           -8.21068733934715        3.66521549973160        0.64454624996324
H           -7.66118815089372        2.11226353211901        1.25830758216182
H           -6.18142429414329        3.75019306629927       -2.43478209261866
H           -7.47382778138864        4.53621696145034       -1.53005663856647
H           -5.81778374601119        4.58938968108929       -0.92545539328916
N           -7.68615197970196       -0.77307165530752        0.04745686339854
H           -8.76290734152645       -0.70655587784475        1.50835870948115
C           -8.69250604852416       -1.61164712891646       -0.56575014921396
H           -8.97577472113966       -1.25061911076311       -1.56247357978093
C           -8.21867579817028       -3.06467647048472       -0.68219056138313
C           -9.92841677251480       -1.57845364810122        0.34528375689536
H           -7.89275544849819       -3.42702984443364        0.29060901301732
H           -9.03902163097585       -3.68182640626106       -1.03775309527036
H           -7.38771790593006       -3.12809538111406       -1.38016527349406
O           -9.69936201294503       -1.01387494875130        1.52483311746802
O          -10.98941310203713       -2.03810405107335        0.02643414962353
