42
 energy: -62.486133513323 gnorm: 0.000479717890 xtb: 6.7.1 (edcfbbe)
N           -1.13690030250893       -0.63859568349252       -1.23914198313530
H           -0.37608964149506       -1.29268111672326       -1.37553818425331
H           -0.74844359243910        0.19542434422347       -0.80683815852042
H           -2.57730440894283        0.10823086958184       -2.21424991861201
C           -2.17114066851540       -1.20797079822494       -0.37491483701979
H           -2.36001420271603       -2.23245865983343       -0.72035829862223
C           -1.82067213476028       -1.23333658025983        1.11007659550173
C           -3.44904437895841       -0.41819013034127       -0.62840510120962
H           -1.59803099834250       -0.22697134751594        1.45940472799201
H           -2.66848766128469       -1.60998185626679        1.67174162870726
H           -0.95597061477165       -1.86959420599662        1.28688659935862
O           -3.47369884939618        0.21211237512905       -1.83093671893238
N           -4.38119467008093       -0.46931003382428        0.20711959564514
H           -5.41254056890610       -0.64153748823635       -2.07757578688717
C           -5.62230998814562        0.26798489221869        0.13544344440246
H           -5.96447404949479        0.33635616223203        1.17321579926691
C           -5.54071026965853        1.68012055853659       -0.46883124644962
C           -6.64160833435758       -0.55806374406472       -0.61555654043860
H           -4.68460613819937        2.19073558045428       -0.02139323374328
H           -5.35850513461996        1.61060455727439       -1.54346345823501
C           -6.81203620951544        2.50369271264819       -0.23092678104258
O           -6.28651593292213       -0.98721991214930       -1.84105289284505
H           -7.68050501253131        1.88272808874317       -0.47489289416208
C           -6.93101293280786        2.95596223873699        1.22223856593152
C           -6.81069300868436        3.72174026197869       -1.15391341450519
H           -6.08317373749041        3.58164271472294        1.49475406220884
H           -7.84126908722134        3.53419852539340        1.35997009393372
H           -6.96667485772593        2.10744215480013        1.89977870201384
H           -6.78208792087127        3.41757949735689       -2.19791259203935
H           -7.70677866227956        4.31700331763326       -0.99745888669109
H           -5.94346651035591        4.34814393641646       -0.95393180621989
N           -7.77200986797707       -0.76605046253796       -0.10152885038901
H           -9.06080358938109       -0.28242025336887        1.09203060698252
C           -8.79892762190545       -1.50208062637334       -0.80457861953056
H           -8.82276930908540       -1.25534877718657       -1.87392338945401
C           -8.60683162749498       -3.01463354404105       -0.65061519189105
C          -10.14568536378142       -1.11701503072144       -0.17586314350004
H           -8.54063914694224       -3.27443710084177        0.40387562825418
H           -9.45335476000581       -3.53114877498344       -1.09420605211715
H           -7.69126181234778       -3.32282475431998       -1.14928048235001
O          -10.02573440765516       -0.42053606268315        0.94843144914236
O          -11.20221327808218       -1.43132159618516       -0.64874396405845
