42
 energy: -62.486133504729 gnorm: 0.000480998685 xtb: 6.7.1 (edcfbbe)
N           -0.93082743005705       -0.45840496830076       -0.39357013873306
H           -0.16170393233338       -0.75367585549519       -0.98285223019648
H           -0.82563305246087       -0.92790131674834        0.50186068571096
H           -1.86053468524361        1.15577012077811        0.13655766439221
C           -2.21524790295182       -0.82419810800745       -0.99292216192274
H           -2.18500484630368       -0.50641200536771       -2.04307914397277
C           -2.56024019193452       -2.30904782834907       -0.92831624481262
C           -3.28745707252372        0.02128809794858       -0.32204131349899
H           -2.52646971547297       -2.65604504787242        0.10250087399673
H           -3.56826942208848       -2.45065577883842       -1.30256046758724
H           -1.86003364430632       -2.89242557945584       -1.52273277949976
O           -2.83460248798953        1.17123653340357        0.22499785975237
N           -4.47432062603927       -0.38093968414281       -0.32073421958674
H           -7.48850012852058        0.43684711921578        1.70600884893626
C           -5.56093714121216        0.38342303773216        0.23175256758179
H           -5.37161657506283        0.60279309195111        1.29451300001846
C           -5.74641842024796        1.70718951610985       -0.54558264527035
C           -6.81608366020980       -0.44386981269351        0.09510141934625
H           -4.80463028289821        2.25530005287297       -0.49245724414870
H           -5.92379747220295        1.43178189632520       -1.58718406810387
C           -6.87750735124223        2.61937127970145       -0.05949998620007
O           -7.79075042891350       -0.21153942122873        1.05863878357801
H           -7.81721616948456        2.05729509864485       -0.02758866170066
C           -6.58598756356384        3.20043673749838        1.32416421189104
C           -7.06183098805694        3.75890397057771       -1.06120775070216
H           -5.67500421434355        3.79434316447371        1.29341440185198
H           -7.40340769002674        3.84336870145052        1.64352768583589
H           -6.45322900723019        2.42750129259512        2.07941575817325
H           -7.31764192281964        3.36693970341090       -2.04237067973916
H           -7.86077210460603        4.42281310568461       -0.73917281136634
H           -6.14595965377100        4.33941758792883       -1.14909336252666
N           -6.93098288002077       -1.26221833100483       -0.83756929965352
H           -9.19940101944290       -0.29712294773388       -0.06619898229168
C           -8.04329098013796       -2.13206840075643       -1.11286714405962
H           -7.70293614166275       -2.79078735420816       -1.92021783976426
C           -8.48635971547788       -2.99018576311017        0.08065444511184
C           -9.26553385916233       -1.37445024535124       -1.65420465728430
H           -8.88682278741186       -2.37812732970394        0.88590265870102
H           -9.24980453611506       -3.69387904271629       -0.24176032070764
H           -7.63060868829287       -3.54402754910892        0.45978599648934
O           -9.72709208890455       -0.39035629254612       -0.88221113456666
O           -9.79172276551852       -1.65970747361675       -2.69186649239836
