42
 energy: -62.486133508122 gnorm: 0.000481153061 xtb: 6.7.1 (edcfbbe)
N           -2.86029480081647       -2.50456190423616        1.08597028263960
H           -3.22370316878499       -2.48520271375093        2.03356831856691
H           -1.94107678713407       -2.92934247899165        1.11021896776319
H           -4.50053193064051       -2.61813786571366        0.12191035639735
C           -2.79934832100903       -1.15721950652813        0.52545321092507
H           -2.40610987095517       -0.40119730447969        1.21890862833610
C           -1.94549273648908       -1.16434708423668       -0.74267804570905
C           -4.22732877523033       -0.76889766459631        0.15874210465272
H           -2.32671407024789       -1.90134914744025       -1.44619164605180
H           -1.97415042157580       -0.18259234442130       -1.20535161689509
H           -0.91334443810581       -1.41144720712139       -0.50307220244154
O           -5.01845327199034       -1.81813235074812       -0.11373414667604
N           -4.50510536498755        0.45246583620229        0.09330736978870
H           -7.26568617386838        0.60820846700476       -2.12968656901227
C           -5.78724765627426        1.06176222479903       -0.17290508582994
H           -5.98322144699687        1.66522616939067        0.72419556794437
C           -5.60495375592986        2.01510269620070       -1.36366220329619
C           -6.96298419051185        0.10335616450205       -0.30264677983299
H           -4.64108563203736        2.50731157294937       -1.22278541621703
H           -5.51866372612731        1.43290641446329       -2.28804639116655
C           -6.70184348049717        3.08397459513436       -1.49078767346326
O           -7.65123155295210        0.03196920939823       -1.45768195809783
H           -7.68287555881866        2.63419678595009       -1.29727418185819
C           -6.49137618283590        4.20258957067733       -0.47278620183589
C           -6.70483214504416        3.66390601438620       -2.90509992084501
H           -5.54716198295330        4.70982677362425       -0.65816841586596
H           -7.29358345980172        4.93345411486265       -0.54361108734723
H           -6.47778353123581        3.81203424659113        0.54139947054826
H           -6.91576807930734        2.89713753813543       -3.64864123116618
H           -7.46185036879630        4.43906066906621       -2.99570763292798
H           -5.73636420943866        4.10376775548255       -3.13317862235879
N           -7.22383112501970       -0.59403503160134        0.71205270368836
H           -6.49762930120524       -1.21710948845295        2.17169616525499
C           -8.23826205100728       -1.61214207149035        0.81202384966000
H           -9.21940410547179       -1.13986501113700        0.95470050672295
C           -8.31963253253625       -2.59165227099107       -0.36156336383280
C           -7.91830635699372       -2.40229757501886        2.09718095630268
H           -7.31969095148842       -2.93639641445839       -0.61438405821711
H           -8.92925635763069       -3.44106025524277       -0.06506066086586
H           -8.75930788514934       -2.11491784893175       -1.23240705965103
O           -6.82416106027907       -1.97871726876078        2.71755516662942
O           -8.58654245490569       -3.31966165392518        2.48716360832125
