42
 energy: -62.486133522718 gnorm: 0.000478629490 xtb: 6.7.1 (edcfbbe)
N           -1.38218838036821       -0.70101157958545       -1.69605999102116
H           -0.76418317047435       -1.42189086954773       -2.04790309920478
H           -0.82646438939639       -0.07539187204928       -1.11965055412764
H           -2.77000362191998        0.47333857760097       -2.33058565004811
C           -2.45975312761839       -1.28252551454432       -0.89658307127661
H           -2.88320650664274       -2.11163157196328       -1.47709158495272
C           -2.02938427424386       -1.79751741643866        0.47361762966838
C           -3.56771363433381       -0.23731843073558       -0.78983203216910
H           -1.58741155455390       -0.99104402300795        1.05500005384372
H           -2.90001525763876       -2.16460095372394        1.00494776026184
H           -1.30138629294807       -2.59995943867060        0.36890499081454
O           -3.55745549502910        0.66713501642422       -1.78272683725736
N           -4.37255401341588       -0.32788795868865        0.16710652468826
H           -7.43922676448420        0.28999604435337        1.93234342094253
C           -5.52829745822007        0.48979834118168        0.42330059393989
H           -5.44818504236414        0.76203825046907        1.48701168050086
C           -5.70867075005584        1.76222082731560       -0.42608783751814
C           -6.74352451178148       -0.39495934445423        0.24380294445735
H           -4.79539338245305        2.35525940792520       -0.35616662795937
H           -5.82760030117851        1.44717000521732       -1.46259751804942
C           -6.90653607381269        2.62955929194216       -0.02062213129190
O           -7.71823969608458       -0.30076681889541        1.22256076118287
H           -7.80181550774467        2.00231310210725        0.05374842437469
C           -6.67708405399455        3.33396829224279        1.31640866921536
C           -7.16519428069865        3.66990393954888       -1.10927645679924
H           -5.81710266603970        3.99681763392994        1.24633549996848
H           -7.54672981882955        3.93129061442794        1.58199561253446
H           -6.49382499706873        2.63025192819934        2.12635910761142
H           -7.39609766392581        3.18304367424326       -2.05321806089596
H           -8.00470976886059        4.30588814542119       -0.83763805846399
H           -6.28806363664139        4.29754419774777       -1.25062849880896
N           -6.81945762358307       -1.13295969180118       -0.75999626748532
H           -9.13874245082435       -0.36714174551793        0.09768427505166
C           -7.88497436206532       -2.03657361421758       -1.10608906302286
H           -7.51322305882469       -2.60530681908385       -1.96629424913016
C           -8.27846388587020       -3.01387687224141        0.00988780555527
C           -9.14471919805364       -1.29736630974165       -1.58320278276883
H           -8.70458460538278       -2.49407823353223        0.86513312139961
H           -9.00799153862676       -3.72384726390594       -0.37179077223466
H           -7.39476124840663       -3.55523931853704        0.33976267314655
O           -9.65879028570820       -0.41473488943871       -0.72647617855999
O           -9.65246692275427       -1.51193235070612       -2.64645898333702
