42
 energy: -62.486133496817 gnorm: 0.000481638174 xtb: 6.7.1 (edcfbbe)
N           -1.20028048899226       -0.98591084783735        0.55637722056038
H           -0.73370731759103       -0.08631730024890        0.61072867638263
H           -0.49498158241006       -1.69134960500208        0.37872132261065
H           -2.71331660066470       -0.79708567826172        1.71983803995706
C           -2.20833153611141       -0.98198712919999       -0.50411862219439
H           -1.90093173296725       -0.44879656076941       -1.41309304550120
C           -2.58569722113762       -2.41879577275906       -0.86830506111494
C           -3.43916342104032       -0.29945531326706        0.05784507448613
H           -2.89697754246476       -2.96307988185990        0.02122852550488
H           -3.40357511617596       -2.40851062824982       -1.58258713879238
H           -1.73583669982111       -2.93222573021068       -1.31265042879050
O           -3.56172256779514       -0.41482864441438        1.41036486824233
N           -4.24619653830875        0.28110013688259       -0.70333959690118
H           -5.43811505026004       -0.69935807643583        1.59344102661807
C           -5.45731954126762        0.90711002514632       -0.20157702938863
H           -5.25694251417834        1.39738910131368        0.76428456127935
C           -5.92255487217869        1.92659777135008       -1.23947720156325
C           -6.47867815897265       -0.18379443409184        0.03416934819141
H           -5.07961798402193        2.58326520911951       -1.46245315700311
H           -6.17237044352741        1.37034376136744       -2.14142463347004
C           -7.13101626854444        2.76318440750332       -0.81003338955510
O           -6.29431547790539       -0.91414305802279        1.18683538002451
H           -7.93908329140994        2.08158072134609       -0.52965205444504
C           -6.81084134139004        3.67086191088007        0.37623686554285
C           -7.60220992750317        3.60626836542552       -1.99334171842551
H           -5.95866883360622        4.30863141932667        0.14831560300559
H           -7.66364161051709        4.30738265831091        0.60047362183278
H           -6.58394446059268        3.09590623071225        1.27057825317349
H           -7.86549904806873        2.96855721512707       -2.83277373702585
H           -8.47690677410640        4.19161789002204       -1.72023338870166
H           -6.81667907274306        4.28940814691747       -2.31052417720265
N           -7.38284447745509       -0.38996391412826       -0.80342540808854
H           -8.03964024700321       -1.06511003369545        1.60785271421953
C           -8.39460869852248       -1.41316016646459       -0.76008977075018
H           -8.90633762763312       -1.35387027870332       -1.72779655595712
C           -7.85066939545522       -2.83570315451818       -0.56677407904499
C           -9.46148538609951       -1.14788177173644        0.31370640925523
H           -7.38062559181712       -2.95336764055593        0.40726994220249
H           -8.66617283176227       -3.54932388024476       -0.65454328636508
H           -7.11155874241489       -3.04555606889430       -1.33687285548129
O           -9.01219887516913       -0.99750196882333        1.55886176531483
O          -10.63092635794921       -1.10415323314387        0.05689223326067
