42
 energy: -62.486133513838 gnorm: 0.000479674204 xtb: 6.7.1 (edcfbbe)
N           -2.75121933474510       -1.61939697998564        1.89319721844855
H           -1.83375738848768       -2.03003248504207        2.01605600866541
H           -3.43747506448382       -2.36164865615482        2.01176809003247
H           -3.85591362140787       -0.18575917608586        2.46336271397916
C           -2.88889185848196       -1.03485421863674        0.55985674719338
H           -2.01050734920713       -0.39947322338558        0.38564308310109
C           -3.01091023253131       -2.05396093706591       -0.57130454476942
C           -4.10381172718431       -0.12108215661522        0.60841740386429
H           -3.82373275442174       -2.74519824083863       -0.36024586355450
H           -3.22928010832179       -1.53741337622770       -1.49949046527294
H           -2.08635378452863       -2.61793295195024       -0.67684874942460
O           -4.45694965374154        0.27806992452701        1.84306502016682
N           -4.70297154734432        0.19392219224265       -0.45234413192463
H           -8.18073733015016        1.30245444656611       -1.29860911853369
C           -5.89786685283761        1.00486186301685       -0.38949310900753
H           -5.93412923773607        1.58746940340141        0.54465349616863
C           -5.92488766036132        1.95073649278606       -1.60055948558283
C           -7.08015496254200        0.04974733854680       -0.34853320266073
H           -4.88824754960322        2.12680310399104       -1.89226469575084
H           -6.40103300318064        1.44710542362923       -2.44659085013983
C           -6.59936363075647        3.30373129789165       -1.32424297010874
O           -8.25234584255534        0.43012475978139       -0.88956081371477
H           -7.51151402647839        3.15419824009246       -0.73047556406760
C           -5.66973547557090        4.21438542145582       -0.52440633151849
C           -6.98600411472398        3.97718710911747       -2.64028363114228
H           -4.77827709809783        4.44327489766982       -1.10403847021155
H           -6.16978775694135        5.14849691738315       -0.27883275682635
H           -5.36033814376930        3.73935486417533        0.40335146222428
H           -7.69110056006443        3.36871874798988       -3.20383354006490
H           -7.44592908448053        4.94448566634179       -2.45239217943193
H           -6.10248147208933        4.13230922731323       -3.25520272083839
N           -6.90502300478736       -1.04980149944660        0.23417222566693
H           -5.77362235690203       -1.98624354234560        1.11352920632432
C           -7.87804612104046       -2.09689852325459        0.40007745926751
H           -8.75251727227760       -1.74296396119167        0.96168448797082
C           -8.35008926938098       -2.70601851150558       -0.92277752580265
C           -7.17597897382320       -3.18567903417317        1.23650671028016
H           -7.48983996243126       -2.99418621838698       -1.52382607173419
H           -8.95016493011873       -3.58732560123185       -0.71404029956192
H           -8.94404371234753       -1.98424958536652       -1.47690441219560
O           -5.91137630891825       -2.88730533959052        1.51767857640168
O           -7.70978114680742       -4.20203898624262        1.58301686440628
