42
 energy: -62.486133506907 gnorm: 0.000480085126 xtb: 6.7.1 (edcfbbe)
N           -0.89610530768519       -0.42022762629146        0.57362925234673
H            0.05364305683624       -0.56099168720909        0.25164011861669
H           -1.06974524063339       -1.09011198126490        1.31798717293418
H           -2.07834024519480        1.01730942924610        1.10559103370152
C           -1.85493567200395       -0.62410101033718       -0.51088184561793
H           -1.48646164252101       -0.06129299217159       -1.37900496667610
C           -2.06427330356616       -2.08380765376500       -0.90956943273748
C           -3.15441694078646        0.03946721204051       -0.07899768603677
H           -2.47661966035580       -2.64597737345844       -0.07450532131565
H           -2.75832332116900       -2.14582838616777       -1.74081556494581
H           -1.11769376560927       -2.53186760346786       -1.20591025536283
O           -3.01833450719767        1.01058414205241        0.83364557826430
N           -4.24906612277827       -0.32807744640633       -0.58076208727832
H           -5.31701041375624       -1.36859675220783       -1.75757589677077
C           -5.49500667265977        0.31107417492964       -0.20852468213633
H           -5.54216074309983        0.50370360135092        0.86773422773235
C           -5.64651089221874        1.64245092354469       -0.97109627712448
C           -6.59145301274118       -0.65072491842509       -0.60921487697822
H           -4.80880744935704        2.28099924569126       -0.68234609903614
H           -5.55536448663251        1.43057149265102       -2.04021882249047
C           -6.96080078929702        2.38415479476179       -0.71377095725119
O           -6.27331380301075       -1.49594841115958       -1.59670767710707
H           -7.79368815733673        1.72153459364057       -0.96695099277756
C           -7.09839735188798        2.80441518399985        0.74698309764719
C           -7.02957967962901        3.61322763546533       -1.61937449223537
H           -6.26137322312051        3.43501310001833        1.04022359161484
H           -8.01871166368710        3.36538637451892        0.88853128782932
H           -7.12717785660430        1.93847652962621        1.40216452576315
H           -6.95804206856641        3.32811710297357       -2.66660789053117
H           -7.97040610372134        4.13738450216328       -1.47235346323518
H           -6.21547590041723        4.29898632853443       -1.39290404816185
N           -7.70498843772466       -0.61426908184534       -0.01859297311957
H           -8.94003354999561        0.37736528437764        0.87710756871859
C           -8.78814504923165       -1.49612815690481       -0.39568179127853
H           -8.82511702621133       -1.66718756957381       -1.47912123065217
C           -8.67465901880643       -2.84893514722698        0.31538113943771
C          -10.09750642174664       -0.82546152257207        0.04412191285665
H           -8.59059493170996       -2.69699629365286        1.38961923944813
H           -9.56186896367088       -3.44009566147838        0.10668193571606
H           -7.79373417170784       -3.37934215401766       -0.03778819266927
O           -9.91483609421313        0.24589322331808        0.80695137146263
O          -11.18075465493826       -1.24217130144526       -0.25978053869367
