42
 energy: -62.486133511822 gnorm: 0.000479570705 xtb: 6.7.1 (edcfbbe)
N           -1.96146384548353       -2.30912224209615       -0.93050574676289
H           -2.15082137205928       -3.02085028926300       -0.23244262926585
H           -1.02522965228728       -2.46226252181074       -1.28542713253185
H           -3.74432427232576       -1.94166072402596       -1.65282659428155
C           -2.09079528729676       -0.96910726773289       -0.36283585250194
H           -1.66527658805701       -0.86583990659467        0.64577423717480
C           -1.42850105047058        0.05178364354567       -1.28924878251354
C           -3.57425505554478       -0.65235640675786       -0.29854186936837
H           -1.84919238601437       -0.02343614786526       -2.28968164705515
H           -1.59947789282762        1.05348485083513       -0.90674999238494
H           -0.35687214351320       -0.12724504482485       -1.34465944601831
O           -4.32913392314461       -1.30470741617942       -1.19423769576912
N           -3.98903969694480        0.19734889628454        0.53533637199205
H           -5.03171397508708       -1.54302617771957        1.64200754846321
C           -5.39436012939448        0.56522123987030        0.58108427748505
H           -5.53597997564236        1.02823145917654        1.56802661981899
C           -5.71678040563528        1.59057657349404       -0.51422087631848
C           -6.29517030749808       -0.65027609776772        0.51939268958027
H           -4.84908995331079        2.24536515680360       -0.62271198411311
H           -5.84983290910262        1.04586715792823       -1.44970826961240
C           -6.95759925274887        2.44116169964445       -0.21948079922562
O           -5.89820626181486       -1.71762334760014        1.24996045531042
H           -7.73606369650546        1.78827014323803        0.18450288018988
C           -6.64864435947159        3.53087516842917        0.80530675428841
C           -7.47003697254188        3.07591487518242       -1.51113181743073
H           -5.89766153540787        4.21528630797184        0.41567150626541
H           -7.54611025667957        4.10159161395922        1.03214933886560
H           -6.27459454931761        3.10689628124239        1.73380179274925
H           -7.75039718990739        2.31582570181091       -2.23605888247539
H           -8.34293294562515        3.69231254304575       -1.31014168216603
H           -6.70120358070851        3.70667972265465       -1.95298989397665
N           -7.38425910191204       -0.61249848882662       -0.10625873751142
H           -8.31574137270761        0.09589846705481       -1.48134714418349
C           -8.28086994708791       -1.74296574612099       -0.16108987015326
H           -7.74027463311412       -2.69534515380207       -0.22971450528895
C           -9.20543118299400       -1.78309663330854        1.06018301110296
C           -9.14461110388756       -1.57163287074299       -1.42039279585101
H           -9.71510673648263       -0.82813225336246        1.17219424772690
H           -9.94479113518003       -2.56730366087446        0.92398682401420
H           -8.62598090617288       -1.98336712260234        1.95807644567026
O           -8.99992584145412       -0.38831891744398       -2.00332090354921
O           -9.88844006420885       -2.42207919633863       -1.82391910011718
