42
 energy: -62.486133515345 gnorm: 0.000479070328 xtb: 6.7.1 (edcfbbe)
N           -2.29176683345650       -1.04385299667208        1.90429043408436
H           -1.99967699317907       -0.21357399876884        2.40799458552838
H           -1.50020433684106       -1.67183511620719        1.84367907948142
H           -4.14705588263544       -1.23404407287605        2.31238568326434
C           -2.79084191995169       -0.70030718226468        0.57437749549782
H           -2.21535799181516        0.08693533643373        0.06939559317604
C           -2.81796497455954       -1.95223568733362       -0.30388434289020
C           -4.22793664538745       -0.22800673095461        0.73571593187432
H           -3.38898649857332       -2.73872102850564        0.18450406517477
H           -3.28267043683893       -1.71826149075230       -1.25677956959024
H           -1.80673127585490       -2.31135113428388       -0.48340716362894
O           -4.84125877448777       -0.74423623097374        1.81677619307266
N           -4.67528726370272        0.61454906531264       -0.07721803515099
H           -8.35979016121438        1.38226217961007       -0.67067821681056
C           -6.03556280751612        1.05538591599492       -0.22283771441465
H           -6.24885080462451        1.77949002856254        0.58344377957321
C           -6.13393242119008        1.77766387298272       -1.58916733416987
C           -7.12675957788211        0.01057801660304       -0.09932126092256
H           -5.13996018507927        1.73456310259086       -2.03513357529151
H           -6.80690884658689        1.22877152408733       -2.25291082909641
C           -6.57353784282466        3.24524470426014       -1.50040055431235
O           -8.37328325961329        0.45355001658111       -0.40842589942078
H           -7.45442801515474        3.33010946846216       -0.84803475639040
C           -5.45896159502943        4.10458672311643       -0.90917062121644
C           -6.95846340277002        3.76130132906463       -2.88576743434018
H           -4.59771335724674        4.10528976131363       -1.57271409796287
H           -5.79532884176122        5.13064264862441       -0.77802958795876
H           -5.14030835257659        3.71967382298533        0.05607140715832
H           -7.78857525268204        3.19154330445481       -3.29876364396198
H           -7.25435467859132        4.80645172710576       -2.83393134855503
H           -6.11405514498457        3.67734979698940       -3.56572296809680
N           -6.91430396464772       -1.16138737059855        0.29535774677936
H           -5.91929097520246       -2.27286387660048        1.41117814070883
C           -7.97985321848742       -2.13367306458310        0.38980543391383
H           -8.84404396346963       -1.72451223517344        0.93169519495206
C           -8.44926703139058       -2.61625625795387       -0.98585301604845
C           -7.45074168408879       -3.33657918139493        1.18527366274849
H           -7.59360893029574       -2.94164617253514       -1.57382148930901
H           -9.12782154268051       -3.45388445677278       -0.85210072719305
H           -8.96060031800712       -1.81513573687155       -1.51255017052214
O           -6.22075080629887       -3.18371916503149        1.65226412885095
O           -8.09939443627334       -4.33188495071088        1.36135049917008
