42
 energy: -62.486133509191 gnorm: 0.000480453991 xtb: 6.7.1 (edcfbbe)
N           -1.26546007910950       -0.72647682406761        0.09719319050718
H           -0.56650922441403       -1.44647978140218       -0.04257799545749
H           -1.16840608026550       -0.39011144756004        1.05105502452117
H           -1.97507143652837        0.83049246088453       -0.77325672795714
C           -2.61218835798935       -1.26343160889265       -0.09754443243361
H           -2.60550386347597       -1.81366221884838       -1.04760341437604
C           -3.10224018295374       -2.18542751135194        1.01539410873474
C           -3.54817047850103       -0.07307866449287       -0.29110107131221
H           -3.07910021602458       -1.66403744118409        1.97026726315625
H           -4.12726103001610       -2.47759330506432        0.81364548738174
H           -2.47587094387115       -3.07288969221854        1.07918791227644
O           -2.93209467584414        1.03538610434846       -0.75378533653823
N           -4.76247941378806       -0.22731019261293       -0.03086075512658
H           -7.03636907040159        0.72130820416777       -2.32784661483188
C           -5.83647433853888        0.72810777300855       -0.15055849922111
H           -6.06104763160996        1.03316804815377        0.88010432392072
C           -5.59900387212354        1.97939097076309       -1.00494900215219
C           -7.01767101288899       -0.12142596901535       -0.60367401029734
H           -4.69594813299501        2.47028090185693       -0.64237995358776
H           -5.38986049792309        1.68668049177018       -2.04027839502679
C           -6.76086074420335        2.98434936422623       -0.94780751258178
O           -7.49699096586618        0.01603120304938       -1.85502717418227
H           -7.71825869318686        2.45438788651664       -1.01714955110805
C           -6.74883439038360        3.75619293791547        0.37013821304851
C           -6.66108828978494        3.96003869238952       -2.12028224776448
H           -5.82004696135230        4.31334543462545        0.47405152946630
H           -7.57646396083288        4.46102537216601        0.40160746160719
H           -6.84599631849346        3.08506208723375        1.21983242152164
H           -6.72585110812687        3.44027237650454       -3.07464287698668
H           -7.46653543821313        4.68928854127046       -2.07754664079561
H           -5.71367596792608        4.49360789662952       -2.08563784256298
N           -7.45437813758371       -0.98232080982423        0.20265032990452
H           -7.40809390034244       -1.72797218524045        1.83127061866266
C           -8.51063417002223       -1.90874230693166       -0.12945071760639
H           -9.38640817841281       -1.39488306060666       -0.54544305562764
C           -8.05192350574682       -2.98465330618681       -1.12050891952293
C           -8.91600444666815       -2.60394265831944        1.18085512895710
H           -7.14967909144680       -3.46679472234868       -0.74959514446530
H           -8.83637872053116       -3.72835439334209       -1.22943866975032
H           -7.84156304544043       -2.53518943248135       -2.08728923501808
O           -8.08110790977635       -2.36155513677602        2.18258192294099
O           -9.87868677461940       -3.31410990930458        1.27533603396847
