42
 energy: -62.486133518503 gnorm: 0.000479313179 xtb: 6.7.1 (edcfbbe)
N           -2.48466199870351       -2.48322541117777        0.78232076383800
H           -2.70932132846823       -2.51183704221244        1.77148069064613
H           -1.56666923252398       -2.89334059458444        0.65848375758213
H           -4.23521578624628       -2.59736751598591       -0.00582548772298
C           -2.51185806781190       -1.10894487357650        0.28565416029503
H           -2.07816704538402       -0.37623939913249        0.97972041073081
C           -1.77482059076723       -1.02500281109425       -1.05120243521236
C           -3.97345230424311       -0.74377770059545        0.06001394014260
H           -2.19629142881865       -1.73822050313585       -1.75658532609240
H           -1.87328069410298       -0.02231179673116       -1.45603344007044
H           -0.71849896214156       -1.24853834726251       -0.91701272248808
O           -4.77767422120500       -1.79530774563450       -0.15878554068154
N           -4.28643322672269        0.47058002616915        0.03793118907577
H           -6.44989350520483        0.09318181551576       -2.28204197925957
C           -5.61629996248538        1.00630801604295       -0.14393457885775
H           -5.84967562951663        1.48874456622276        0.81314718412215
C           -5.53501576842109        2.08576116829941       -1.23380623395625
C           -6.70844726423404       -0.01685562692754       -0.38659941381616
H           -4.74601242803626        2.77745308129227       -0.93443197487278
H           -5.20584690551525        1.63096648451897       -2.17514288556831
C           -6.83835182109808        2.86240683964747       -1.45918151593262
O           -7.01152359969510       -0.37271008024320       -1.65020549202628
H           -7.64853840378098        2.16035419382332       -1.68723883484978
C           -7.23715222864378        3.66030029120877       -0.22010852801425
C           -6.66642398922230        3.80132938321695       -2.65308125928724
H           -6.42687842795932        4.31886082910041        0.08495225660359
H           -8.11203420147478        4.26951104039616       -0.43464825292360
H           -7.48264399715740        3.00169422444976        0.60867218730351
H           -6.40673237457992        3.24751739036964       -3.55320091333447
H           -7.58756681707161        4.34626266661200       -2.84389924114733
H           -5.87640317384220        4.52237178129457       -2.45478730538238
N           -7.26631087679214       -0.53025082726779        0.62093710252997
H           -7.62929470347054       -0.49515073596908        2.38317089362512
C           -8.30727695595855       -1.52552719317498        0.49749972489022
H           -9.01956571065600       -1.27336826730719       -0.29816484303572
C           -7.73800767270139       -2.92237102660730        0.22636191344369
C           -9.04905591725511       -1.56695800278606        1.84065745922103
H           -7.02076575087795       -3.18475805816021        1.00082632250113
H           -8.54843245414911       -3.64572941741520        0.22669720728086
H           -7.23526859974835       -2.93299434447749       -0.73651540442282
O           -8.42046070774985       -0.90664568732154        2.80705235528948
O          -10.07996656612246       -2.15819646051946        2.00578908639891
