42
 energy: -62.486134860881 gnorm: 0.000499808527 xtb: 6.7.1 (edcfbbe)
N           -1.48066123633770       -0.54790343758474       -2.02029730149386
H           -0.79674205991806       -1.19456833061705       -2.39298051662257
H           -0.97940529595847        0.26718424432760       -1.67816870042440
H           -3.13331933522169        0.25366295216178       -2.51545975204514
C           -2.24475760607288       -1.15541878971530       -0.93283644577994
H           -2.53182733033706       -2.16364870654349       -1.25789210939867
C           -1.49245930856832       -1.24750549721208        0.39302549123401
C           -3.54216006662396       -0.36034836800145       -0.79375040315953
H           -1.18894869668673       -0.25493561787364        0.71984008480944
H           -2.13942533576428       -1.67311367095399        1.15217157140290
H           -0.60709086482118       -1.87102456899604        0.28467636234533
O           -3.86606356902626        0.36003374679366       -1.87275167003419
N           -4.19402072250478       -0.46701895333571        0.27668552335799
H           -5.45176329753496       -2.08639378056625        1.22471610071227
C           -5.47461071127407        0.16936913506176        0.54157523365878
H           -5.49491098140792        0.30000400763847        1.63421452562567
C           -5.74169375547775        1.51493260347990       -0.13430031820963
C           -6.50480647652327       -0.88563070456334        0.19642965107404
H           -4.84655961685081        2.13232806800289       -0.03217494798103
H           -5.91092192739702        1.34202772286584       -1.19607164348278
C           -6.94193763940834        2.25989453552960        0.46279056529344
O           -6.31081157689333       -2.08758477858629        0.77820788356968
H           -7.75588237989534        1.54378718735543        0.60955435920552
C           -6.59615946979405        2.89553374938659        1.80822567187250
C           -7.41301518145352        3.33892402694141       -0.51078592054854
H           -5.79731711994431        3.62481048842034        1.68791883967099
H           -7.46444814010204        3.40606613391884        2.21860532971192
H           -6.27311464211836        2.15011340204380        2.53088945679273
H           -7.72352980505297        2.90087452480909       -1.45608094286146
H           -8.25614129154507        3.88544829046286       -0.09462263729642
H           -6.61016853649115        4.04671744634012       -0.70684194176392
N           -7.42305441969001       -0.64581626739234       -0.62701009903211
H           -8.11531708276280        0.43308376118508       -1.88835209124745
C           -8.39040681471064       -1.63965701484400       -1.02763606194041
H           -7.91852645084830       -2.60673781456190       -1.24355748824727
C           -9.47077299938142       -1.84468390325670        0.03979140468961
C           -9.06375403016591       -1.11425745752794       -2.30580195149682
H           -9.92411744245758       -0.88953374941131        0.29794772902558
H          -10.23768084659602       -2.50841160946509       -0.34933308481740
H           -9.03084390857066       -2.28244285433579        0.93236063262835
O           -8.76115051527182        0.14820369191840       -2.57936716631480
O           -9.80589277184349       -1.77838961159538       -2.97461805368892
