42
 energy: -62.486133521808 gnorm: 0.000478924270 xtb: 6.7.1 (edcfbbe)
N           -0.74002893311363       -0.24825771779951       -0.02832469404263
H            0.12431662741223       -0.28500647570413       -0.55453959270731
H           -0.67957424642965       -0.94805228885533        0.70680534228291
H           -1.88936942712111        1.05228932015202        0.80360610003946
C           -1.89054814998920       -0.52528155875978       -0.88813290061938
H           -1.75754434475803        0.05266767382551       -1.81157422285852
C           -2.08650146789356       -1.99809243771768       -1.24277212965895
C           -3.11886608233750        0.05013606104554       -0.19775287115830
H           -2.16121349072042       -2.59810784251254       -0.33667616747437
H           -3.00487426294745       -2.11118671355508       -1.80945370589715
H           -1.24984266711555       -2.36175492019950       -1.83546061695232
O           -2.86338326419355        0.98658744618839        0.73095765525634
N           -4.26486910358066       -0.34506810652458       -0.53501279011842
H           -5.20295217453154       -2.02332784200869        0.81097312451037
C           -5.45369478238399        0.22187940060294        0.07596699814710
H           -5.26603469624364        0.47128306211738        1.13314163234552
C           -5.88152448031194        1.48806305497252       -0.67474408851190
C           -6.49799536913492       -0.87093805796005        0.02576204228847
H           -5.00349116943832        2.12891154925711       -0.77939704768308
H           -6.20151560108205        1.18622365124477       -1.67247259840353
C           -6.99838285533761        2.27315004764013        0.02272524844754
O           -6.14910056506563       -2.03482931782258        0.61548142636333
H           -7.74836832057060        1.56355541217890        0.38308312347734
C           -6.45754859564879        3.06553743563671        1.21135081149925
C           -7.66309514706668        3.22222490027314       -0.97292313244559
H           -5.74017297388461        3.81085769513195        0.87396230967852
H           -7.26783580450363        3.57807367166158        1.72462307656340
H           -5.96139784828611        2.41627737643544        1.92816159466863
H           -8.10824252273441        2.67243138446025       -1.79846782890200
H           -8.44666782280921        3.79626161704440       -0.48412619326999
H           -6.93132860683022        3.91863851873541       -1.37738756360091
N           -7.58586580539033       -0.70221546292324       -0.58050025975356
H           -8.57212478446181        0.26564033699967       -1.73005673965446
C           -8.58665789852269       -1.73746327300927       -0.68392976074827
H           -8.14445291882159       -2.71046235967144       -0.93293278893286
C           -9.39426192796516       -1.87826216670752        0.61098183040057
C           -9.54528643594425       -1.31960063806219       -1.81074996028561
H           -9.81087682157428       -0.91405351215957        0.89624254655364
H          -10.20576990106124       -2.58286751727684        0.45267893469152
H           -8.75188421249597       -2.23847966979345        1.41058479405650
O           -9.34624925947346       -0.07896394746684       -2.23781812053722
O          -10.40111314935412       -2.04044363593796       -2.24294778583915
