42
 energy: -62.486133510063 gnorm: 0.000480387502 xtb: 6.7.1 (edcfbbe)
N           -0.79120073968866       -0.19142477216335       -0.88746036085440
H           -0.03242534314315       -0.74540388788535       -1.26491821822316
H           -0.48855145244107        0.17299467671948        0.01172675339194
H           -1.99657168205427        1.17129949365233       -1.44771421953141
C           -1.99796393424034       -0.99808630141365       -0.71534522076838
H           -2.13864932158727       -1.56615182625857       -1.64569051408595
C           -1.95431660030485       -1.96547211535817        0.46503217647694
C           -3.17633294742310       -0.02576753302105       -0.61695711618170
H           -1.78516123784277       -1.41787878443839        1.38990600838364
H           -2.90068527294695       -2.48892763539424        0.54981982714510
H           -1.15401172633136       -2.69057533971397        0.33041138175594
O           -2.93719022369218        1.17047105377944       -1.17123625484378
N           -4.22136877811014       -0.42118013542064       -0.04213552847865
H           -5.11177775041488       -1.66044647497022       -1.25701471384176
C           -5.49571203395400        0.24559733460407        0.08594238586324
H           -5.68435353187110        0.32814499928482        1.16164965170713
C           -5.60577355586195        1.64009909877451       -0.56092924940783
C           -6.53577812981407       -0.70198808157233       -0.49126674821300
H           -4.81785618058829        2.26398661194838       -0.13566679382587
H           -5.40620979188999        1.53904533574386       -1.63028985632534
C           -6.94975384332942        2.34983150400514       -0.37610934309683
O           -6.08406530412848       -1.66867254368476       -1.30708918988142
H           -7.73698082757978        1.73228502320377       -0.81597463655668
C           -7.27600992102771        2.58658827694476        1.09611325700912
C           -6.91661591116345        3.68311447177531       -1.12247863915572
H           -6.49010519878335        3.17199800371789        1.56984217864679
H           -8.21141698545952        3.13318860333115        1.18699544286453
H           -7.38039215960309        1.64670837237654        1.63134500547616
H           -6.70317384490922        3.52992482646832       -2.17780766890456
H           -7.87656554677337        4.18638950825364       -1.03794127800122
H           -6.14912584789390        4.33412113995853       -0.70859456044992
N           -7.74940602560053       -0.55689016156154       -0.18350139366636
H           -9.11595354781096        0.45806500035182        0.51437765259538
C           -8.77328675242094       -1.42531911102372       -0.72345992043073
H           -8.62802143714721       -1.61554800362394       -1.79422253668971
C           -8.81685117153632       -2.76774506802791        0.01556921348130
C          -10.12448426261879       -0.72454762643662       -0.52347482131839
H           -8.91945865624445       -2.59860815690790        1.08572989348377
H           -9.66680112443817       -3.34491065150220       -0.33768303228784
H           -7.90008695688817       -3.32175383616191       -0.16985656163315
O          -10.06251717628883        0.33659547905538        0.27184897373198
O          -11.14322852504877       -1.11517657353607       -1.02255640487215
