42
 energy: -62.486133517193 gnorm: 0.000479427729 xtb: 6.7.1 (edcfbbe)
N           -2.06075817240690       -0.68583204825233       -1.64474002401685
H           -2.03446003774356        0.24318466222161       -2.05270968990337
H           -1.97871579529259       -1.35785219231461       -2.39940165231741
H           -1.38280124992766       -0.48288154029692        0.14933189256146
C           -3.31611827897097       -0.89034103953913       -0.91361230992829
H           -4.20896171523755       -0.57345247597019       -1.46285784349736
C           -3.43751400023575       -2.37260017903073       -0.55575261102105
C           -3.19309103089389       -0.09805388133381        0.38879574630849
H           -2.55489526424830       -2.69992606863920       -0.00960489713804
H           -4.31439489382114       -2.52997445047262        0.06339884849381
H           -3.53424251703291       -2.97229569167827       -1.45832092284486
O           -1.93854394698165       -0.09915983694489        0.85958802020600
N           -4.03922159977183        0.53203774302448        1.07241500247466
H           -7.46432450919411        0.15520957512168        2.01261163767541
C           -5.42692867431289        0.81524462392581        0.89891071631563
H           -5.74893738778102        1.14085822640103        1.90019169624389
C           -5.57121169257634        2.01194940796021       -0.07365621281257
C           -6.38830483480100       -0.26258887282837        0.43853308141666
H           -4.81762979868156        2.75170306455189        0.20213257789145
H           -5.33840774083525        1.64304738159105       -1.07402405882112
C           -6.95651282989746        2.66837403385759       -0.08303351610328
O           -7.51210796344977       -0.40897947682508        1.23035788957529
H           -7.72401821066429        1.89335874000675       -0.18857003764438
C           -7.21780111329641        3.45940556982720        1.19754312914824
C           -7.06694198172056        3.59692361281319       -1.29137528110781
H           -6.48317760195630        4.25475399449709        1.30143381463366
H           -8.20757210075160        3.90903754241999        1.16620193289563
H           -7.16189681411769        2.83180611705078        2.08411236091867
H           -6.95292013976787        3.03719254840228       -2.21643177796229
H           -8.03815317469534        4.08543565520479       -1.30672722480101
H           -6.29610015797668        4.36349638945147       -1.25228978234383
N           -6.18723846083898       -0.93237942353592       -0.59732310564963
H           -8.73113155774348       -0.58632048509272       -0.12626293900649
C           -7.03769027436358       -1.95016636023001       -1.16251518597859
H           -6.44394920085797       -2.40962086617272       -1.96144258673970
C           -7.49456506217788       -3.04288692853546       -0.18831347141825
C           -8.26921938102068       -1.32631524107884       -1.83875033138699
H           -8.12997341995960       -2.64365337200055        0.59882231644961
H           -8.04673202772756       -3.80240718571917       -0.73636913543133
H           -6.62550370372980       -3.50665641131656        0.27357514412395
O           -9.06501559840980       -0.61357261036199       -1.04272807683326
O           -8.50850813668107       -1.47698514977252       -3.00216848540412
