42
 energy: -62.486133512851 gnorm: 0.000479317165 xtb: 6.7.1 (edcfbbe)
N           -1.59640153656496       -1.79896592434999        0.98414157651116
H           -0.59464392067484       -1.94325057407461        1.00767532120847
H           -2.02970340632729       -2.69298371913421        0.76925323755296
H           -3.01971488322440       -1.00889839279249        2.02842705052487
C           -1.96357254505685       -0.81036809409321       -0.02696798532156
H           -1.28680680682953        0.04548907087725        0.08956495318419
C           -1.89234327001662       -1.31250452603422       -1.46884845167062
C           -3.35885881307088       -0.31096629067974        0.31977247374504
H           -2.53543772730935       -2.18200310908628       -1.59681470908127
H           -2.22519154236632       -0.52869018298168       -2.14157379543561
H           -0.87194770962940       -1.59160653179761       -1.72306339252136
O           -3.74302862946880       -0.52124028129724        1.58501150664711
N           -4.04426350620507        0.28478184289206       -0.55491721009396
H           -5.04755334834943       -1.05023320460009       -1.72450388205852
C           -5.38803543267958        0.73567605836782       -0.24105694254042
H           -5.48423137024136        1.03235860359246        0.80849703021820
C           -5.70952846959863        1.91910542678805       -1.16853883089043
C           -6.33604242831747       -0.41294475349597       -0.50210444580839
H           -4.95046878158035        2.68459973218903       -0.99564733951942
H           -5.59988155470699        1.57606335288692       -2.20019856142638
C           -7.10247257141785        2.52578778208531       -0.98019868260675
O           -5.92643556155626       -1.32145700646900       -1.40716204195439
H           -7.84836958194499        1.73404388838295       -1.09860327633866
C           -7.27006132001019        3.14699988052828        0.40407293272947
C           -7.34437458208842        3.58205886742713       -2.05765611888108
H           -6.52479529227311        3.92378010459003        0.56393611464492
H           -8.25677949828454        3.59423634944947        0.49507066457568
H           -7.16618943348960        2.39925428331202        1.18510191628537
H           -7.26349594172557        3.14782440697400       -3.05150095992685
H           -8.33859102197409        4.00863254913999       -1.95170345321555
H           -6.61532062676968        4.38545327431685       -1.97323051732865
N           -7.45504710084287       -0.44454463001176        0.07381025936913
H           -8.78998889591896        0.44570371548483        0.93605327723564
C           -8.41313139040306       -1.49562090586019       -0.18611076615628
H           -8.46066531811418       -1.75377705058558       -1.25213315330311
C           -8.08695567640447       -2.76069485970936        0.61461129237140
C           -9.78911505657029       -0.97782826972913        0.25798123876820
H           -7.98032350512611       -2.51408103252802        1.66906655475020
H           -8.89252299846158       -3.47962081339188        0.49481369973569
H           -7.15683253878132       -3.19522127620086        0.25647708969091
O           -9.73690428316643        0.17243533487761        0.91810364850794
O          -10.81016338124958       -1.56880891307789        0.04002773233679
