42
 energy: -62.486133509869 gnorm: 0.000479758691 xtb: 6.7.1 (edcfbbe)
N           -2.49188480323632       -0.12612809907340       -0.21005052286757
H           -2.42596972819636        0.75496068591589       -0.70909478610891
H           -1.96892031345624       -0.82168178100432       -0.73008064725897
H           -2.82133217169679        0.27094639273557        1.78752831196088
C           -3.88530619295185       -0.53876039162730       -0.04254998123851
H           -4.46493609980523       -0.54383715244254       -0.97767722262772
C           -3.90916652858008       -1.94659244139760        0.55444691493854
C           -4.49669313558044        0.43768502897439        0.96827022938707
H           -3.38760686115986       -1.96838551355608        1.50839990173298
H           -4.93508590782726       -2.26105966212785        0.70913438712178
H           -3.42134422644795       -2.64590245294123       -0.12264440418506
O           -3.68918111668209        0.65638034188575        2.00968158635219
N           -5.60923591323502        1.02810043374277        0.97094957788115
H           -8.32459874911213        0.54337915185902       -1.70190259460339
C           -6.57869716484940        1.04802969084086       -0.08381076134023
H           -7.38406109545310        1.69732908454343        0.30347710569170
C           -6.05072232354315        1.69612159129517       -1.38748974742336
C           -7.26872534982254       -0.28141748986800       -0.31412421838649
H           -4.98228419814857        1.49883502488945       -1.47696399004527
H           -6.53494024762771        1.25062525700474       -2.26217800206814
C           -6.25986196652853        3.21502529770682       -1.41762285512141
O           -8.19903443256507       -0.32429360640432       -1.29694488890891
H           -7.31361858561713        3.42889926446079       -1.20065431948097
C           -5.39676033129454        3.89688505861884       -0.35999896329609
C           -5.93615615502094        3.76182548416525       -2.80707394925212
H           -4.34309729448201        3.79591088576691       -0.61270348778349
H           -5.63376409152238        4.95626237587033       -0.30124725312457
H           -5.55541571567424        3.44437496180247        0.61521698002552
H           -6.58001988622288        3.31754096354782       -3.56391784478600
H           -6.07754547426517        4.83930404877454       -2.82938152594140
H           -4.90179146126450        3.54868940432681       -3.06879475180717
N           -7.06448983532108       -1.24594213815599        0.46628868686546
H           -6.64573571325295       -1.71690657123744        2.21381968127395
C           -7.80369155896227       -2.48390551583485        0.36368856565094
H           -8.88208929985865       -2.28639154864530        0.28070989156842
C           -7.38157309426161       -3.34191355485892       -0.83161863107947
C           -7.57617620417528       -3.26134782797199        1.67058246546885
H           -6.30499105987197       -3.49741958867205       -0.82371280207124
H           -7.87651945044108       -4.30626384932181       -0.76223359731664
H           -7.66468559063418       -2.85427711565521       -1.76074580919617
O           -6.88654337535167       -2.59377287889209        2.58802651419628
O           -7.99193847232041       -4.37293203808375        1.84393427403837
