42
 energy: -62.486133503701 gnorm: 0.000479576030 xtb: 6.7.1 (edcfbbe)
N           -2.11673758333225       -1.75304679648847        1.32300192241100
H           -1.75337249537590       -1.05576013197470        1.96395612037563
H           -1.39236481000454       -2.44402595989214        1.16950568241478
H           -4.02528749428302       -1.69493867691411        1.70790425300610
C           -2.52216846596388       -1.13478299753106        0.06299464726930
H           -1.81877543698146       -0.37935391301756       -0.31380967854689
C           -2.71644623952740       -2.21680028323262       -1.00079993959372
C           -3.86485422455498       -0.46641750046595        0.30628267606143
H           -3.43289867461849       -2.95849588628644       -0.65375911366800
H           -3.08797047028118       -1.76765729735721       -1.91692214928511
H           -1.77231494466530       -2.71460971507469       -1.21152423987906
O           -4.59379287443022       -1.01812717332258        1.28466383518163
N           -4.19029228236600        0.52287724289155       -0.40005991210461
H           -6.08574135248366        0.19964836519842       -2.44563421360645
C           -5.50565086640582        1.13603420623847       -0.29862047772070
H           -5.67675479540784        1.46731468810269        0.73290812850576
C           -5.55552836708172        2.32857269086802       -1.25801563988633
C           -6.54062335235071        0.07533857084106       -0.59277262206507
H           -4.86488665228213        3.08353371528332       -0.87888665711271
H           -5.17019034283653        2.01928403530839       -2.23450867353800
C           -6.94987179531049        2.94535115382361       -1.42026295699058
O           -6.66963618028665       -0.32006635109523       -1.87840980162396
H           -7.63797629598738        2.18501320567199       -1.80761231527654
C           -7.49994061605554        3.44825679792534       -0.08757907806557
C           -6.88307672940811        4.09073568852881       -2.42956805228855
H           -6.80029852264024        4.14071864161279        0.37560578277255
H           -8.44223175912863        3.96795334966787       -0.24494471804152
H           -7.68032231434409        2.62254422381174        0.59558722750926
H           -6.50415355942597        3.74366311167165       -3.38868392790719
H           -7.87062779048744        4.51717201463654       -2.58743267626325
H           -6.22478937243711        4.87644273248313       -2.06530571701715
N           -7.16122110922082       -0.45613033648827        0.36211671403810
H           -7.40525240473212       -0.64758825721925        2.14479301607987
C           -8.08091747345955       -1.55556658119788        0.18775459467435
H           -8.85143607751232       -1.32565237205981       -0.55814511830366
C           -7.36692660871820       -2.85157771477648       -0.21550811303859
C           -8.75009035665523       -1.79175244201627        1.55066483408557
H           -6.57118250908592       -3.06590569933805        0.49539794106661
H           -8.08051002489005       -3.67081950609177       -0.21177847274737
H           -6.93928711396731       -2.74771512739343       -1.20935778541884
O           -8.13758600946383       -1.17124488467297        2.54999855303680
O           -9.71220489019400       -2.49444464735638        1.69570129693864
