42
 energy: -62.486133500312 gnorm: 0.000481868736 xtb: 6.7.1 (edcfbbe)
N           -1.20265224634938       -1.43025665323402        0.23586508043890
H           -0.28716516781134       -1.58049018161513       -0.17101672011445
H           -1.55858892743860       -2.33776612033406        0.52587337270822
H           -2.12011223592059       -0.31526798524759        1.50564281413314
C           -2.11525583872756       -0.83467737017997       -0.74157472891790
H           -1.58333230859417       -0.00069402587581       -1.21695142677977
C           -2.61696386925866       -1.79321399574692       -1.81837765907202
C           -3.27710137407732       -0.22723478638859        0.03041992197430
H           -3.08616435704567       -2.65997815658463       -1.35694153573850
H           -3.36339449157732       -1.28823941677017       -2.42176100278942
H           -1.79524933132924       -2.12646574869647       -2.44915762727839
O           -3.02337372465587        0.01890105720052        1.33531434306950
N           -4.35152660888159        0.02077888943588       -0.56676772704705
H           -7.14492234455975        0.35063165429168        1.82801223312518
C           -5.46450432644665        0.63584999905790        0.10692399487283
H           -5.22956394054206        0.86902734084241        1.15893631335236
C           -5.81094857376078        1.92349963429345       -0.66606140441419
C           -6.64411615091790       -0.30467219676173        0.05684684758335
H           -4.92233048436671        2.55813463695622       -0.67407075268710
H           -6.01496147024041        1.61582344024134       -1.69214563289718
C           -6.99960616227284        2.71693598953691       -0.11402234150290
O           -7.48478720096115       -0.25850322904349        1.16090460243763
H           -7.85220898707770        2.04336705515195        0.02523026374140
C           -6.66522102650825        3.38610235515077        1.21906415251615
C           -7.41415439284120        3.77847982054252       -1.13156125717037
H           -5.85726745851668        4.10226342913384        1.08455502916366
H           -7.53265484891022        3.91848090923668        1.60301818827570
H           -6.35164005827640        2.66595557472279        1.97232240202815
H           -7.71591734736854        3.31269665293506       -2.06608367639005
H           -8.25087773442350        4.36125103605108       -0.75348873080407
H           -6.58654860739487        4.45492585964096       -1.33389703062668
N           -6.82229738103126       -1.04034155526152       -0.93366236043572
H           -9.03073965237285       -0.37134524041513        0.22511729806261
C           -7.88466117681034       -1.98664645828298       -1.14669976167217
H           -7.60641195624248       -2.53414852641951       -2.05458671564698
C           -8.08817770933222       -2.98640433477498        0.00047761684858
C           -9.22806143925684       -1.30149545272079       -1.44397875941757
H           -8.41901968063973       -2.48958972440166        0.90999591879721
H           -8.83200183385376       -3.72438548166476       -0.28961910451401
H           -7.14802304720293       -3.49336734370066        0.20594298563643
O           -9.65604508852055       -0.43991384157105       -0.52114029090291
O           -9.86764068058383       -1.54003370807396       -2.42796210335020
