42
 energy: -62.486124300881 gnorm: 0.000972814768 xtb: 6.7.1 (edcfbbe)
N           -0.76247022892470        0.01173788278427       -0.16161250200365
H            0.10492422196040       -0.20391771629624       -0.63774307745518
H           -0.69145725254763       -0.35465299646417        0.78375053901259
H           -1.97511120086630        1.51886678805577        0.09164319175895
C           -1.90187777968640       -0.59530059659807       -0.84696194482971
H           -1.80545473666751       -0.35056565654646       -1.91325169832533
C           -2.01419329491153       -2.11081612254660       -0.69117155015461
C           -3.14930697584182        0.12276459047126       -0.35252486443231
H           -2.12688896078333       -2.37536704854504        0.35857787511606
H           -2.88036911901009       -2.47041836132578       -1.23661903928685
H           -1.12283889958939       -2.59688337267229       -1.08259718211560
O           -2.94157073229560        1.36891962082843        0.09527015986357
N           -4.26200520995008       -0.46232291573182       -0.39944626526571
H           -5.09836364472811       -2.10547101045684        0.17291323070479
C           -5.50054459218740        0.16442682795367        0.02216721525152
H           -5.41260269371382        0.47034362999094        1.07532613266304
C           -5.88550907836164        1.38746546937906       -0.82141027057929
C           -6.53942141253158       -0.93952812915965       -0.05929781954254
H           -4.98399032647963        1.96724460090675       -1.02352945438016
H           -6.27970385284275        1.02755586672552       -1.77287149540781
C           -6.91507269149507        2.29623861010141       -0.13865062207427
O           -6.07194376581181       -2.17041103455703        0.20337767713010
H           -7.67125738862410        1.66626029248437        0.33812352044095
C           -6.25472253325256        3.16705588418224        0.92846119025688
C           -7.59686319818027        3.18217227967784       -1.17963938472947
H           -5.51876123882216        3.82777984509055        0.47490104363548
H           -6.99961442515656        3.77762678945066        1.43341942409327
H           -5.74974755901820        2.56190833670825        1.67727515173517
H           -8.11747556865217        2.58299132735364       -1.92246145483258
H           -8.32149007496584        3.83817124541342       -0.70345367898206
H           -6.86040422421758        3.80006023931916       -1.68969550536363
N           -7.72382822295919       -0.69075999157216       -0.40714452537193
H           -8.88957748983033        0.39961004893116       -1.25691803031111
C           -8.71279572932198       -1.73763321956592       -0.52631303529444
H           -8.29515477004591       -2.64488816088365       -0.98228065564540
C           -9.31491321874015       -2.10354664522999        0.83433808224175
C           -9.83286765102548       -1.19924645982007       -1.42867919682803
H           -9.69203729990056       -1.20934268637409        1.32676585812270
H          -10.13399907143558       -2.80202501617111        0.68819916423706
H           -8.55521975458064       -2.56164841686820        1.46284208037259
O           -9.71872986224895        0.09580658633432       -1.69786067026022
O          -10.73095975546153       -1.88228709760219       -1.83628263921386
