42
 energy: -62.486133518035 gnorm: 0.000478744715 xtb: 6.7.1 (edcfbbe)
N           -0.94132245170330       -0.46643019133362        0.22358386775033
H           -0.10882991461676       -0.90942210475341       -0.14561236432921
H           -0.97845970523349       -0.66870161115892        1.21914257640018
H           -1.86212015461392        1.20890875785560        0.23113517502294
C           -2.14307361400297       -0.98345165532752       -0.42955380990639
H           -1.94878403060447       -0.99060754645496       -1.51010142338669
C           -2.55923555712513       -2.38298537522013        0.01748944565318
C           -3.25811290329437        0.02889496625943       -0.19148609738788
H           -2.71701670793539       -2.39850628256684        1.09396243371509
H           -3.49157342941746       -2.65442309227497       -0.46541534576709
H           -1.79156691424381       -3.11004948065357       -0.23969915759798
O           -2.83712948419631        1.25772970421874        0.15096000402504
N           -4.45083667765839       -0.34033270199031       -0.32782654702269
H           -5.99093172474184       -0.26105684026276       -2.38566448770084
C           -5.59526427817593        0.53176202225927       -0.16095335433161
H           -5.74013617239105        0.72124836400905        0.90829619635421
C           -5.50381226392484        1.87137554175798       -0.91136435670602
C           -6.77035917775021       -0.28587747484916       -0.65134313999540
H           -4.75148749228868        2.48915099076736       -0.42047892752916
H           -5.15416319491753        1.68762242175394       -1.93329957786892
C           -6.83341691792275        2.63340614457408       -0.96345445908617
O           -6.79539936983249       -0.58685162196760       -1.96324449460513
H           -7.57961630988556        2.01645387641970       -1.47731758350703
C           -7.35607694059884        2.95157905631115        0.43506146785255
C           -6.64405229735144        3.92276377176615       -1.76129075341037
H           -6.59984821305145        3.47965028262042        1.01208215570236
H           -8.23912005567401        3.58266168459073        0.36829386163507
H           -7.63156361459816        2.04280206145890        0.96320647634293
H           -6.28439864926784        3.70993005004217       -2.76589606115583
H           -7.58554260122337        4.46018424440155       -1.84327798697383
H           -5.92157974504750        4.56928807730348       -1.26766531936893
N           -7.61967544708046       -0.71231542942765        0.17419101514810
H           -8.41290678133894       -0.62811861842283        1.80359218699732
C           -8.73014873691291       -1.54284721725932       -0.23926741363491
H           -9.18247071212642       -1.18904134346486       -1.17393532265184
C           -8.29869661538162       -3.00273107129544       -0.41885712085351
C           -9.78308169903646       -1.48305429214976        0.87620511707953
H           -7.81171935285958       -3.35855138232945        0.48675126270337
H           -9.17378325015837       -3.61453001308839       -0.61896644014476
H           -7.60199017488647       -3.08178554719766       -1.24936045091765
O           -9.33507966380060       -0.92088186620822        1.99310186190106
O          -10.89180825643358       -1.92488509694687        0.75721190983445
