42
 energy: -62.486133511621 gnorm: 0.000479662801 xtb: 6.7.1 (edcfbbe)
N           -2.07928607936730       -0.70955973989193       -1.72685849320929
H           -2.07983552115398        0.21948386978345       -2.13513357485603
H           -1.99108621554162       -1.37918712815003       -2.48279407654006
H           -1.39118158748481       -0.48504206094957        0.05776694726492
C           -3.32125347582966       -0.94442558839221       -0.98168877884717
H           -4.22654596047210       -0.65658915297373       -1.52615471316248
C           -3.39599033654220       -2.42683958338118       -0.61325416426374
C           -3.20811982206261       -0.13908611105719        0.31365382743145
H           -2.50664728864098       -2.72047317757643       -0.05908587075101
H           -4.27209255317132       -2.60659932724577        0.00009409585499
H           -3.46527310818104       -3.03509593405486       -1.51226779790922
O           -1.94751577844777       -0.10591791777152        0.76982165986453
N           -4.05486582828206        0.48339347165327        1.00169355914471
H           -7.69248074998495        0.43827971880891        1.66153306054130
C           -5.44789559875306        0.75246766407980        0.88156101531315
H           -5.75439612990972        0.99521707467924        1.91079661099954
C           -5.58987961348663        2.02752366079340        0.00587356303522
C           -6.42680647232294       -0.27656546564529        0.35558835945500
H           -4.81259204843751        2.72128557675965        0.33184533236707
H           -5.36893641266939        1.73434235392763       -1.02264317217546
C           -6.94813743154069        2.73621909577676        0.05012687925256
O           -7.67260991629687       -0.22225076910371        0.95777999046115
H           -7.74637981068868        2.01925119898478       -0.17085959951151
C           -7.21004582758724        3.38252791417197        1.41000732078472
C           -6.98569509968700        3.80880146322785       -1.03827567398793
H           -6.44946124611445        4.13160572105200        1.61823642983823
H           -8.18163220320266        3.87160066334953        1.41269500157607
H           -7.19602853036828        2.65927654484988        2.22306704249015
H           -6.85695436192130        3.36286540770908       -2.02142569121801
H           -7.93956349241880        4.33046275204513       -1.02317027115646
H           -6.19259080117910        4.53655667459426       -0.88196975533054
N           -6.13995711199832       -1.09074929986026       -0.54663730990460
H           -8.67633220536655       -0.46816941406462       -0.54484622220117
C           -6.99852243260103       -2.09079014225386       -1.13211503364034
H           -6.34155721252519       -2.69599981543795       -1.76764927900299
C           -7.70570446199158       -3.00904262487903       -0.12832353556239
C           -8.03862899445041       -1.45200767165250       -2.06585742968615
H           -8.42336752290385       -2.46574310340685        0.48210873715129
H           -8.22591698983833       -3.79684472332075       -0.66750161462456
H           -6.96741053915864       -3.46162855497169        0.53037140402938
O           -8.86903440720103       -0.58054712204150       -1.49511757039052
O           -8.10799811212736       -1.72274931375229       -3.23040372099783
