42
 energy: -62.486133509472 gnorm: 0.000480712801 xtb: 6.7.1 (edcfbbe)
N           -1.64647317299384       -1.19416626963791       -0.81948779289365
H           -1.02765048745145       -1.99564226610548       -0.80514408153619
H           -1.11842146413684       -0.39396130082546       -0.48131711432791
H           -2.90506646680291       -0.36493954460355       -1.99660375147787
C           -2.81015527705722       -1.41629742144383        0.03941379601695
H           -3.19828080962572       -2.41703139094037       -0.19018495596837
C           -2.53209257524060       -1.31723425432371        1.53622594841741
C           -3.88613669776963       -0.43014390400382       -0.39664348679916
H           -2.10707084606042       -0.34429772572223        1.77505764864610
H           -3.46449939563775       -1.42524254945297        2.07923931743908
H           -1.83714086484696       -2.09438362563067        1.84749870352285
O           -3.75281159309157        0.00102923078365       -1.66956471899492
N           -4.80907230823548       -0.14231734027682        0.40301287985244
H           -6.62848274133862        0.67033070176903       -2.27208962381439
C           -5.91036556199191        0.74954617803151        0.09382754631556
H           -6.30465218658436        1.02645005086239        1.07951445819777
C           -5.55458237604522        2.02532172090522       -0.67586467716977
C           -6.96713252180679       -0.12367255201931       -0.55968896661997
H           -4.71766991098348        2.49657814629228       -0.15461302221583
H           -5.19322052885995        1.78230830754712       -1.67902583413445
C           -6.72052673029723        3.02174286667429       -0.76279597062958
O           -7.19355329495952       -0.00950616615173       -1.88197905950768
H           -7.64145949669563        2.48215833460268       -1.01354522578222
C           -6.93912523467484        3.73962719814177        0.56710909766927
C           -6.44403291929027        4.04502487078627       -1.86434519736936
H           -6.04822389551464        4.29833762670681        0.84659407880924
H           -7.76888511838075        4.43783205811377        0.48528971725531
H           -7.16839004508542        3.03516023040461        1.36222751943267
H           -6.34731760527727        3.56322723918068       -2.83560356102745
H           -7.25465994914849        4.76715926819913       -1.92407756853596
H           -5.52160185851188        4.58312551974582       -1.65586269663610
N           -7.52199989134057       -0.99896417565495        0.15536614141896
H           -7.87306434894488       -1.67951178812893        1.78795409245544
C           -8.46197789130283       -1.95601724663437       -0.37963759043271
H           -9.21963858562944       -1.47643044495115       -1.01214689918381
C           -7.76111819968690       -3.05182581131834       -1.19095918036453
C           -9.16055098185308       -2.61592235191219        0.81985440947400
H           -6.96882793002322       -3.50058832476039       -0.59479505337826
H           -8.48408832604372       -3.81692514065030       -1.45945407675951
H           -7.32941673326228       -2.62789892183331       -2.09397275615443
O           -8.60472855582045       -2.31298042609791        1.98531260202421
O          -10.10202589291899       -3.35108443224201        0.70484019895626
