42
 energy: -62.486133514754 gnorm: 0.000479438505 xtb: 6.7.1 (edcfbbe)
N           -2.92606961629109       -1.18427178711833        1.98340095990427
H           -1.96287244974939       -1.46248830817588        2.12874571846457
H           -3.47735691122301       -2.03481736080569        1.88718780633423
H           -4.31517616503467       -0.01601340231485        2.66709449399911
C           -3.05664461762832       -0.37664189019640        0.77198329079693
H           -2.33957372609596        0.45247857639193        0.85672730597088
C           -2.80540904879158       -1.12398984541488       -0.53595946927351
C           -4.44494147223237        0.23691117340317        0.81329897481194
H           -3.41235211191798       -2.02512627153618       -0.57482561888816
H           -3.07681877797245       -0.48698655095745       -1.37062775070390
H           -1.75685541955417       -1.40284137175360       -0.61708158455164
O           -4.94425188442777        0.41161991590469        2.05093038707205
N           -5.04588701906208        0.54148919735059       -0.24999243772688
H           -8.75282845346652        1.28971996191311        0.31990608071232
C           -6.37763853295717        1.08959222891675       -0.17750635727736
H           -6.46134477464932        1.83377508986796        0.63303519165857
C           -6.73752136833620        1.73687088408291       -1.52587767451740
C           -7.35703476568249       -0.02058152813131        0.14569768454823
H           -6.27906068770509        1.13033827772762       -2.30736130388918
H           -7.82155202714309        1.71014981328114       -1.67035936106805
C           -6.26076673672698        3.18744215798926       -1.65558756895931
O           -8.64473144645453        0.33088307614039        0.35327406820319
H           -6.61015703964843        3.74962601912844       -0.78000116960273
C           -4.73856845604382        3.26659820459619       -1.70841147831230
C           -6.86467715177364        3.82269668628536       -2.90700848245471
H           -4.36917881398686        2.76503349499569       -2.59938871180566
H           -4.41249758630991        4.30401456649667       -1.73340316818902
H           -4.29918484482840        2.78025585636323       -0.84263613665470
H           -7.95191756853694        3.82197965644822       -2.86099456628314
H           -6.52849865885016        4.85171982746644       -3.00902937841475
H           -6.55844890172247        3.27287050626801       -3.79403692605400
N           -6.93651452698541       -1.19929495919693        0.23727055761040
H           -5.51482926861516       -2.15743381606544        0.47359705940623
C           -7.73023927022254       -2.33386449108404        0.62922253195442
H           -8.45352816836290       -2.08629191514871        1.41643854195861
C           -8.47437594081258       -2.94577424432964       -0.56133700284942
C           -6.73077022839209       -3.37003928094361        1.17401388047381
H           -7.77508450967462       -3.15407011990352       -1.36850400624857
H           -8.94884155225751       -3.87243799167271       -0.25076806595022
H           -9.23178190673150       -2.25289093821546       -0.91932605456184
O           -5.46405362400220       -3.03745234970478        0.93677982886548
O           -7.05635522781364       -4.37478227533560        1.74035443813036
