42
 energy: -62.486133514760 gnorm: 0.000480043757 xtb: 6.7.1 (edcfbbe)
N           -1.72176635868109       -1.14534798609495       -0.39151902329360
H           -1.10431783365946       -1.94394190868288       -0.30800250616490
H           -1.26948327685775       -0.36164507581460        0.07172514812575
H           -2.81241760572737       -0.26797212411653       -1.73013340960227
C           -3.01082660655618       -1.41685181461168        0.24639784777745
H           -3.35778565561937       -2.38870301934338       -0.12875790075667
C           -2.97901064836110       -1.45207197377528        1.77107020825635
C           -3.99804046991643       -0.38157462477547       -0.27778962291761
H           -2.61891282454250       -0.50222907237473        2.16070504437670
H           -3.98216200934971       -1.61810514640024        2.14730335053473
H           -2.32574929792542       -2.24990722513122        2.11841428073911
O           -3.68974773005385        0.09877006612392       -1.50013020590273
N           -5.00128591463201       -0.09872618960334        0.41785995553388
H           -7.74191092427944        1.23933393654006       -1.74563029277776
C           -6.06448541961221        0.80166626452094        0.03876723042103
H           -6.40589484688918        1.22938219489806        0.99360889155075
C           -5.70470747572482        1.95283542770942       -0.91415704511870
C           -7.20335222181002       -0.08024981833934       -0.45565634487171
H           -4.67462775426483        2.24629680675846       -0.70634760781747
H           -5.71819971874239        1.59874874620085       -1.94888662489210
C           -6.60292141465071        3.19055789454103       -0.73928830929515
O           -8.01666748739917        0.36804195365916       -1.43233091732047
H           -7.63352650909687        2.88166319204323       -0.52122433048046
C           -6.12064352904062        4.03905051815123        0.43616968925468
C           -6.60757648295114        4.02684973795598       -2.01868086886907
H           -5.12871242566789        4.43670614554456        0.23208206949509
H           -6.79614102416411        4.87440394392243        0.60589592996693
H           -6.07211248808871        3.44911340716041        1.34840108686600
H           -7.00390737493997        3.46308205787444       -2.86175894796487
H           -7.21909496940679        4.91684141416857       -1.88938510416205
H           -5.59567967732543        4.34048175124355       -2.26554144591019
N           -7.33751497790213       -1.20451577906125        0.08928043303591
H           -6.74577036070884       -2.32600599759762        1.32771360358963
C           -8.35055973390782       -2.16759240710704       -0.25866141419028
H           -9.35779830451462       -1.73886186590523       -0.17867557026084
C           -8.17003786634200       -2.74479077565103       -1.66649761332139
C           -8.22201644344251       -3.31297999838806        0.76331181800218
H           -7.15487414897508       -3.11906520872849       -1.78400005654931
H           -8.86976306314871       -3.56363439088800       -1.80784229195973
H           -8.35417263135300       -1.97694319694983       -2.41316089417892
O           -7.17811909191371       -3.18443386607469        1.56980430310773
O           -8.98389670631757       -4.23970198997812        0.80448301884321
