42
 energy: -62.486133508560 gnorm: 0.000480282335 xtb: 6.7.1 (edcfbbe)
N           -1.16543543690247       -0.63662860532805        0.19959079696583
H           -0.41505179579085       -1.26813109659246       -0.05334264408361
H           -1.15317703047216       -0.53837650523999        1.21141839749778
H           -1.90047815894397        1.05865756932884       -0.30048419276164
C           -2.45986446464871       -1.16722048051197       -0.22703166789536
H           -2.35024402406445       -1.48854739048828       -1.27118537585426
C           -2.98127147681228       -2.33494138656556        0.60595829728310
C           -3.44670894754865       -0.00305164356411       -0.23228914457704
H           -3.05361163217132       -2.04506195400609        1.65166966606616
H           -3.97257022744575       -2.60503668167926        0.25984879738481
H           -2.31789361575125       -3.19299486715644        0.51942450486998
O           -2.86745533077936        1.20990431043420       -0.33403709183542
N           -4.67040222187032       -0.25990182456639       -0.15408407188144
H           -6.73162206426494        0.46979600855480       -2.42909914857170
C           -5.76205781958053        0.68735626389478       -0.17009708000927
H           -5.95391538660389        0.95264324735002        0.87672250612761
C           -5.56083901809122        1.96685560820490       -0.99253353450576
C           -6.94405419465085       -0.15174034044617       -0.62855896846888
H           -4.71713082353839        2.51262009055799       -0.56980239207322
H           -5.27352485281601        1.70263224757255       -2.01731291480599
C           -6.78824967294632        2.88931129385828       -1.00852278882070
O           -7.28139540077082       -0.14969900786933       -1.93266501668817
H           -7.68145816835834        2.31669459217568       -1.28405704010708
C           -7.03205078896647        3.50958176422467        0.36543679167294
C           -6.58272585262576        3.99067748991418       -2.04830022420019
H           -6.15093048919128        4.05491704253681        0.69748113198471
H           -7.86779673790138        4.20405951249770        0.31955133232735
H           -7.26924989674189        2.74789437055099        1.10376356269603
H           -6.44908481954013        3.57143430336018       -3.04379963589668
H           -7.44275034893202        4.65545318189374       -2.07325578872571
H           -5.70114366342014        4.57937199344971       -1.80396218959446
N           -7.50289755300969       -0.89658413349671        0.21805351325175
H           -7.76509265619679       -1.39607379701105        1.93168251172890
C           -8.56820216620943       -1.80611836131184       -0.13770464728201
H           -9.32060398612561       -1.32653928497442       -0.77615571490321
C           -8.03639063837578       -3.05443649745298       -0.85119172620373
C           -9.23392394605843       -2.25151105996069        1.17306296167809
H           -7.25860992154945       -3.52005774900081       -0.24948724686666
H           -8.85005947038745       -3.76016146676265       -0.99325303847410
H           -7.62038194013225       -2.78033479348210       -1.81699439661309
O           -8.54177595656169       -1.91340725199541        2.25386358154993
O          -10.26410865639572       -2.86533054213915        1.21061444878962
