42
 energy: -62.486133506708 gnorm: 0.000480656244 xtb: 6.7.1 (edcfbbe)
N           -0.71947301765135       -0.14240843775341       -0.48514026041600
H            0.05923047469345       -0.57566192771778       -0.96554178016491
H           -0.49634487447641       -0.12227987734247        0.50614923265660
H           -1.80942455472541        1.39593990795503       -0.59888975293408
C           -1.95654162825032       -0.89019785512563       -0.70110026896635
H           -2.00392824148321       -1.13941946122813       -1.76938887875685
C           -2.07085514958519       -2.17152488759271        0.12252953967374
C           -3.11744387665616        0.06691923988932       -0.42346797700591
H           -2.00499470758645       -1.93933263082214        1.18352574218929
H           -3.02785612437090       -2.64781469734590       -0.06127007628421
H           -1.27151406195191       -2.86216389151309       -0.13893837032690
O           -2.77807721333951        1.36252542979065       -0.44556381085650
N           -4.24898470603626       -0.42709643934817       -0.19077854761868
H           -5.17929881873554       -1.52202800771755       -1.44261497308611
C           -5.50148577387291        0.26632435300079        0.00608296292954
H           -5.65489810772177        0.38592074251617        1.08302490560706
C           -5.61354404318300        1.64020786957811       -0.68411438536616
C           -6.56939990498519       -0.67100169268016       -0.53325286506642
H           -4.82286447482662        2.28053776823594       -0.29273807069469
H           -5.42808925076803        1.49692661237118       -1.75276411645187
C           -6.95653201849879        2.35331207670889       -0.50173684830315
O           -6.15515963219730       -1.56590148100989       -1.44134576748637
H           -7.75421505893813        1.71809685508914       -0.89637711707542
C           -7.24783369053269        2.64950710988983        0.96711259230142
C           -6.94108394902523        3.65622962302968       -1.30056669514768
H           -6.45362597964199        3.25803014674614        1.39554058699819
H           -8.18433175627518        3.19399353850159        1.05872803793938
H           -7.33303867893134        1.73230679851358        1.54326952078519
H           -6.75767274902885        3.46231591498205       -2.35495161670323
H           -7.89669114119847        4.16624232849265       -1.20876430457251
H           -6.16058623298655        4.31930574157337       -0.93262890535346
N           -7.75367559338300       -0.58406409715005       -0.10997149455384
H           -9.07134563814732        0.41674681308640        0.66158560205087
C           -8.80161833712781       -1.44322385406516       -0.61747471529360
H           -8.72258187370024       -1.59314707412155       -1.70173559306069
C           -8.78500831116203       -2.81189871186910        0.07215104023314
C          -10.14307239362473       -0.76175967977662       -0.31093589610722
H           -8.81517299718297       -2.68320489104764        1.15221368367982
H           -9.65309843235598       -3.38353259190768       -0.24368712177009
H           -7.87906248756613       -3.34968434418455       -0.19581464184394
O          -10.03350594938076        0.29486607120164        0.48511957026406
O          -11.19149030274793       -1.16093425703691       -0.73654315845208
