42
 energy: -62.486133515407 gnorm: 0.000479262117 xtb: 6.7.1 (edcfbbe)
N           -1.98791893130973       -1.63599851594394        1.51834176540893
H           -1.86569534363482       -1.13982177998191        2.39447818881822
H           -1.10499905113455       -2.06805663360778        1.27536004855924
H           -3.82381347589080       -2.12808559946601        1.58449105524785
C           -2.43553020059170       -0.72867429806296        0.46487484693076
H           -1.93299340029936        0.24790435790050        0.47359143234173
C           -2.23283667195790       -1.38480781567890       -0.90093900669457
C           -3.93456879911827       -0.50346681691903        0.66103364803485
H           -2.73500675566019       -2.34922021364392       -0.92963354785513
H           -2.64732204296341       -0.74656916455030       -1.67531716179086
H           -1.17327401757773       -1.53552053913860       -1.09757907400668
O           -4.53856136444333       -1.51135637700032        1.30853289474822
N           -4.40654734946842        0.56984210567386        0.22866641639213
H           -7.96264670118219        1.92868508287232        0.32800955392169
C           -5.73257993421095        1.10145068779473        0.10911661487052
H           -5.76959985778178        1.95160461185937        0.80610951421736
C           -5.75078815188936        1.63590760954876       -1.35382407946993
C           -6.97281174624016        0.26450926231073        0.34549686087842
H           -4.75644300489233        2.05416958572977       -1.52101938357522
H           -5.85238814647705        0.76563097679260       -2.00641785479435
C           -6.79001659369798        2.68678877806019       -1.76055340196267
O           -8.13117005970163        0.98101583068334        0.38276951630503
H           -7.80050110930981        2.27360693504208       -1.67185641689534
C           -6.68051263911944        3.96306476799233       -0.92645488217292
C           -6.57647932667275        3.02863662704988       -3.23648575046691
H           -5.68307461770091        4.38610170922690       -1.02429112175581
H           -7.40008910054861        4.70124746032169       -1.27421723444888
H           -6.86750775501692        3.79080212397228        0.13242258507445
H           -6.66898555436885        2.13874340950320       -3.85440495340307
H           -7.31521691968528        3.75402384670381       -3.56930425085315
H           -5.58623105358306        3.45168645568489       -3.38978738852510
N           -6.96704855649346       -0.97004767282377        0.57359746895408
H           -6.08869860673568       -2.54807692847726        1.16030621809278
C           -8.20807337250350       -1.68291988723582        0.77781102519942
H           -8.86290117505373       -1.15607019711583        1.48531142997255
C           -8.97011498274835       -1.87823452171098       -0.53858740927908
C           -7.88848825049362       -3.06759521272376        1.35513465838602
H           -8.31688445745100       -2.33730349808603       -1.27816554628481
H           -9.82223279378737       -2.52875968180419       -0.36300149597256
H           -9.31770924508291       -0.91995396404474       -0.91571075475355
O           -6.59855584141904       -3.34879744613118        1.43446628321106
O           -8.74937432325226       -3.83811091563777        1.68656385743242
