42
 energy: -62.486133510674 gnorm: 0.000479713419 xtb: 6.7.1 (edcfbbe)
N           -0.85818014865871       -0.68761832690699        0.44669361986771
H            0.09154024822071       -0.66116011118095        0.09684379524377
H           -1.00225329699735       -1.60149873224459        0.86774946270865
H           -2.05836348458333        0.40448513247098        1.49016740925309
C           -1.82220732280705       -0.47582281981855       -0.63211171508349
H           -1.46676337242109        0.37618894765968       -1.22557954218672
C           -2.02966040693353       -1.67518628355398       -1.55493083662078
C           -3.12799469818026       -0.03060330799598        0.01128714528792
H           -2.31528335490959       -2.55302138376854       -0.97726535082208
H           -2.82324391950792       -1.45195224193957       -2.26020652094263
H           -1.11505736114474       -1.89827021623635       -2.10007557556135
O           -3.00183483307467        0.48907181571190        1.24479734644900
N           -4.20555008589457       -0.14287997649664       -0.62928915916333
H           -4.97043525882269       -2.00433225924373        0.15204693059127
C           -5.46450538111231        0.30880702313704       -0.07051175544246
H           -5.35843178769943        0.55417108212886        0.99847075835892
C           -5.94441495652501        1.54816794456678       -0.83600891858507
C           -6.43762946472127       -0.84708935811688       -0.17134277693116
H           -5.07807356407105        2.18551915550355       -1.02570789955808
H           -6.33272017102117        1.21663913398053       -1.79909612855199
C           -7.01000795078842        2.35484626333409       -0.08450704545639
O           -5.93658306419594       -2.06396703259920        0.12636817430920
H           -7.71650854240706        1.65428418449689        0.36925603838676
C           -6.37985109420264        3.20306956904670        1.01882253149367
C           -7.76658765236317        3.25450868672422       -1.06007111809330
H           -5.71237636099391        3.94724882314374        0.58846771295492
H           -7.15026636284838        3.72184118220034        1.58444364347032
H           -5.80634501285472        2.59130620721232        1.71079836185718
H           -8.26859464118136        2.66783205503627       -1.82523113793030
H           -8.51659723897550        3.83888255185378       -0.53252988736777
H           -7.07975546615599        3.94234066876395       -1.54922314138447
N           -7.62697475505879       -0.65658388535426       -0.53265864039945
H           -8.83387680356283        0.39164007608811       -1.38271436237819
C           -8.57750966267365       -1.73762132864238       -0.64738646320742
H           -8.12827125848501       -2.63393869466191       -1.09412756784841
C           -9.17416637512209       -2.11075383014837        0.71402923704522
C           -9.71352225392719       -1.24352635983360       -1.55638582191475
H           -9.58785685414015       -1.22592937903022        1.19389484120773
H           -9.96572593267794       -2.84081637477479        0.57073556410995
H           -8.40256149117800       -2.53315557703212        1.35288170797549
O           -9.64957917722677        0.05480435597056       -1.82432946253290
O          -10.58161068929738       -1.96195324145477       -1.96752844365621
