42
 energy: -62.486133512191 gnorm: 0.000480227031 xtb: 6.7.1 (edcfbbe)
N           -2.04341770897241       -1.34878730405835        1.38029833787201
H           -1.46485747525134       -0.53464400006656        1.55758128065497
H           -1.44679579937315       -2.16717181956903        1.39515656667383
H           -3.77884699698211       -0.84883587510202        2.11016664006438
C           -2.73244050989654       -1.22932485923391        0.09764602207154
H           -2.11546422548191       -0.80142964006699       -0.70465856724887
C           -3.24890646577547       -2.60066238523751       -0.34190225378523
C           -3.93586574985422       -0.33164224849722        0.31774718325252
H           -3.86931824138845       -3.03294831779332        0.44050700696848
H           -3.84049676574360       -2.49287251485923       -1.24624327679951
H           -2.41765665113450       -3.27333796229464       -0.54246960982215
O           -4.40928376226288       -0.32537390080237        1.57286281525392
N           -4.43522603493471        0.28782502154370       -0.65762246733615
H           -6.86451741852464        0.55307545696867       -2.53589374544286
C           -5.64535708562226        1.07214697673661       -0.46014455277918
H           -5.71728258234171        1.41385017094549        0.57875349518724
C           -5.62591174011930        2.26020332018148       -1.42237186646789
C           -6.76973889625372        0.07978763922010       -0.68653470890600
H           -4.76565855809320        2.87875065346829       -1.15845746549444
H           -5.43818035983403        1.89638477586012       -2.43780670230926
C           -6.89494503506433        3.12232657799636       -1.38793177801142
O           -7.29476577341163       -0.05253359449931       -1.91840074483307
H           -7.77536224312104        2.48546908982024       -1.53151999770700
C           -7.04527094196796        3.83859176028780       -0.04764255167546
C           -6.84913657638256        4.14365704542954       -2.52404833945972
H           -6.16892807643228        4.45008466873496        0.15662138268928
H           -7.91840535274554        4.48681238618529       -0.06527116356212
H           -7.17010552049137        3.12746939055910        0.76446392547045
H           -6.77544226501001        3.65130772204078       -3.49174227941537
H           -7.74773271821168        4.75573962910961       -2.52179571025182
H           -5.98855400318258        4.79876638422089       -2.40740860096740
N           -7.07453682845263       -0.64420157484580        0.29546042214753
H           -6.52724599219370       -1.17976452872647        1.93384779370201
C           -8.00408111755620       -1.74400633708964        0.27481583469148
H           -9.02853561540241       -1.38462745515220        0.11590801734841
C           -7.68670119678111       -2.81834018433987       -0.77132379209066
C           -7.93050076636852       -2.39415483175767        1.66978409710841
H           -6.65018943836119       -3.13606227484423       -0.67153054370319
H           -8.33720134452558       -3.67305273094699       -0.60731487623260
H           -7.84251782546170       -2.43022444635669       -1.77382790527182
O           -6.96456757139548       -1.91147604244313        2.43768399309661
O           -8.66624201571397       -3.27879963864408        2.01349385301247
