42
 energy: -62.486133518137 gnorm: 0.000478978792 xtb: 6.7.1 (edcfbbe)
N           -1.81001125687282       -1.08653965207571        1.68155809318208
H           -0.89455131671269       -1.50693220988971        1.57314911194616
H           -2.36086519155735       -1.70862710249679        2.26782741500962
H           -2.64732943590124        0.60973336288014        2.08024490966843
C           -2.46724711056493       -0.93311828868113        0.38277462265245
H           -1.74922446981914       -0.43552622073008       -0.28356300731042
C           -2.93067869144384       -2.23721594590064       -0.25995579495918
C           -3.61841324910360        0.04066957977349        0.57983960181255
H           -3.59021846802756       -2.77877349503140        0.41369080980764
H           -3.47763258374415       -2.01361183851222       -1.16890609090813
H           -2.07547025674082       -2.86647158321863       -0.49811793019888
O           -3.46018301959187        0.89125788820916        1.61479765328873
N           -4.60001841022612        0.01787671853806       -0.20272982807546
H           -7.82358234559166        1.79476115124706        0.78192599224275
C           -5.68507990640324        0.95997584740104       -0.06968092026771
H           -5.52052329914631        1.67014963373750        0.75610899186452
C           -5.77406598031291        1.70858371442214       -1.41613948817784
C           -6.94610885888317        0.17773331281459        0.20860074258680
H           -4.79832336904078        2.16744454838517       -1.59196077333746
H           -5.92322362750647        0.94878862745732       -2.18516293823947
C           -6.85858293070741        2.78339835406693       -1.53999703361180
O           -8.02637982590309        0.85930099498158        0.65862133994471
H           -7.83936326878865        2.33805422041799       -1.34074261412054
C           -6.62231666729751        3.94934544837340       -0.57960135705238
C           -6.87758447301219        3.30546080769359       -2.97691586748403
H           -5.66866565283087        4.42468783903626       -0.79944771061067
H           -7.40745781401164        4.69436316155278       -0.68979756791661
H           -6.60334559758311        3.63317081056917        0.46190951150131
H           -7.08360018214973        2.49864771887774       -3.67596288853113
H           -7.64589910503886        4.06606681766878       -3.09506909937188
H           -5.91657684327478        3.74559466757129       -3.23403941500452
N           -6.93254037896674       -1.06981989645861        0.07218727913634
H           -5.92231048466249       -2.52054606915507       -0.09873912504118
C           -8.05160140711182       -1.92625721345010        0.36518239649287
H           -8.57477537223082       -1.63067408658373        1.28387738989248
C           -9.05738121740829       -1.96085719480171       -0.79006452423235
C           -7.46820507927942       -3.33787945035334        0.55210259449027
H           -8.54522975594040       -2.20168612184473       -1.71936192004865
H           -9.80923717796913       -2.71899619150826       -0.58947530674154
H           -9.53900512756794       -0.99135052684005       -0.89105381669635
O           -6.19698216966300       -3.43062146432852        0.18520685243828
O           -8.10639988019814       -4.26158635334320        0.97581462472211
