42
 energy: -62.486133511469 gnorm: 0.000480166050 xtb: 6.7.1 (edcfbbe)
N           -1.54013186151730       -1.32751802397077       -1.26114104508785
H           -0.84016425453093       -2.05431251689992       -1.17675758080175
H           -1.05178925047848       -0.43899192000141       -1.33538084030157
H           -3.12775492117976       -0.99777524022202       -2.24701467320544
C           -2.42120139489905       -1.31066967964023       -0.09227372096316
H           -2.71723307220136       -2.34866235700191        0.10751913373065
C           -1.80348090046327       -0.71120300940227        1.16715767622000
C           -3.69010446685296       -0.57505956133041       -0.49740421775369
H           -1.47260306523199        0.30678201547040        0.97236412001305
H           -2.55042023845387       -0.68262963186407        1.95224155583636
H           -0.95307909324301       -1.30544243515853        1.49490138307074
O           -3.91367156028751       -0.57617682365273       -1.83922414823898
N           -4.40598557230975       -0.04541197684568        0.38275303098180
H           -5.79685749107192       -0.34855191532987       -2.11026757949346
C           -5.66054078640691        0.64010591347879        0.14574431706419
H           -6.00614547447901        0.92506637283374        1.14419074511537
C           -5.48600680799755        1.89915885094335       -0.71955055158404
C           -6.70800928676149       -0.28997162643785       -0.43026374819011
H           -4.79523862665332        2.56577354439676       -0.19835648245410
H           -5.01957669851688        1.62628804860600       -1.67011863691374
C           -6.79828213833489        2.63977644544411       -1.00181300805008
O           -6.63964251782515       -0.63705355046879       -1.72404923106754
H           -7.48978180215125        1.95621249895750       -1.50709172841505
C           -7.46137687464763        3.13083737845563        0.28254313500555
C           -6.51977198282539        3.81791839169063       -1.93445848963987
H           -6.76600693071897        3.73309397834527        0.86349252567584
H           -8.32751363067525        3.74324489006964        0.04336680358719
H           -7.79759651802437        2.29693372220615        0.89249307603642
H           -6.06651164266191        3.47994529813866       -2.86418909709593
H           -7.44348523751408        4.33798992630263       -2.17578594962342
H           -5.84278548902850        4.52459377130507       -1.45876042228868
N           -7.59559676033263       -0.72423910127287        0.35413984347918
H           -8.48714406301443       -0.61294131223881        1.92153258365677
C           -8.63106249579054       -1.62971823647498       -0.09290401058055
H           -9.05887929191071       -1.31647249431489       -1.05346106479034
C           -8.11311352042718       -3.06596886559943       -0.22758222719829
C           -9.73870033488888       -1.61126080224472        0.97104145190184
H           -7.63874740218442       -3.37673930987599        0.70131045199455
H           -8.94677105567590       -3.72866649254915       -0.44250223017323
H           -7.38674948810004       -3.12419276605317       -1.03443795743483
O           -9.39549972097623       -0.96508326169557        2.07856799596500
O          -10.80146211324265       -2.14671175937700        0.81894558923864
