42
 energy: -62.486133506356 gnorm: 0.000480689889 xtb: 6.7.1 (edcfbbe)
N           -2.19676021245984       -1.33078502784490        1.70577532485067
H           -1.37837800336934       -0.80862258317974        1.98944761193336
H           -1.97751442657791       -2.31823822233886        1.73316103515619
H           -3.81400427628598       -0.74737965400229        2.34850964604011
C           -2.68235681790307       -0.92772506087480        0.38428897194938
H           -1.97739391164818       -0.26880645525657       -0.13488092600423
C           -2.97480301104894       -2.13827073328466       -0.50114885921949
C           -3.98217424953150       -0.15419556819670        0.59129910508511
H           -3.64154402050889       -2.82720152764705        0.01271559362680
H           -3.45273172464793       -1.80394516903138       -1.41638867309452
H           -2.05127877591232       -2.65775046066601       -0.75015866701421
O           -4.48135968480851       -0.22981890530511        1.83446442033864
N           -4.46779367749457        0.48799720892106       -0.37342609984616
H           -8.08935505304647        1.71262421790324       -0.01052415006678
C           -5.74351143686928        1.15947635332557       -0.28766264340289
H           -5.70393500143599        1.93223010472470        0.49649299037659
C           -5.94122576862675        1.80536604778635       -1.67639461981545
C           -6.87579876598748        0.22209248406869        0.07498798433958
H           -4.95754703586933        2.18837569874522       -1.95404421520391
H           -6.18056604002994        1.00393965590718       -2.37832791747861
C           -6.96175393828280        2.93938265982582       -1.83718613102325
O           -8.11604828198634        0.75980087662868        0.13716714179665
H           -7.98276779807018        2.54989508407000       -1.74172275122279
C           -6.75282229036800        4.06431623997829       -0.82358461085250
C           -6.83483449552940        3.50090222590373       -3.25487745793764
H           -5.72728927893252        4.42376610578000       -0.87156254515186
H           -7.41673323682809        4.89684173043717       -1.04703023745774
H           -6.95347046725079        3.74644142204706        0.19820944308058
H           -6.97403495732463        2.71409708023306       -3.99225904128886
H           -7.58288251900152        4.27081148608917       -3.42967471061453
H           -5.85022336026596        3.93861290670021       -3.40207334040411
N           -6.65238220457702       -0.98253155564924        0.35532616405431
H           -5.51783316438876       -2.04710439928803        1.26761461317593
C           -7.70766799687620       -1.90198709233281        0.70966119824168
H           -8.42272805014451       -1.44654950512050        1.40984043076019
C           -8.47144441515530       -2.39537841091582       -0.52141810286892
C           -7.05019512031712       -3.09605263520661        1.41809311291034
H           -7.76966226435446       -2.76493557754671       -1.26621502845619
H           -9.13601269940489       -3.20268384494671       -0.22662161192441
H           -9.05250369832425       -1.58375140767729       -0.95166507901263
O           -5.74840732778009       -2.93777280004810        1.62881856626256
O           -7.65446178899404       -4.07750869370224        1.75190898654649
