42
 energy: -62.486133504352 gnorm: 0.000481063861 xtb: 6.7.1 (edcfbbe)
N           -1.46535901005684       -0.83041782538443       -0.68827408737348
H           -1.13828418237545       -0.00250262557804       -1.17529342752799
H           -1.17980604335388       -1.64490951823884       -1.21839575161300
H           -1.42606699724222       -0.28313111738559        1.10066447901178
C           -2.91573933465710       -0.80289965593415       -0.50805112826605
H           -3.43174486164002       -0.42964494789682       -1.40519060261068
C           -3.40839259514256       -2.21137391797277       -0.17473682796108
C           -3.21361105487531        0.10540348706524        0.70430934361862
H           -2.83445407285093       -2.60864585152435        0.65942992310295
H           -4.45718982777482       -2.19381280605399        0.10692007471944
H           -3.28842780287020       -2.87173368913999       -1.03200552037191
O           -2.16426354283437        0.20182968007716        1.52907138496543
N           -4.26318922623594        0.68569907444916        1.06886001521888
H           -5.25466163245300        0.00492644691000       -1.80039297166686
C           -5.55098599427085        0.93151658657235        0.49425423165124
H           -6.17617551195528        1.20229009041215        1.35242950180622
C           -5.44561538439384        2.15128630462011       -0.44580538389756
C           -6.28405156231537       -0.20356643500499       -0.19546496791574
H           -5.02928297898680        2.97080908142952        0.14201879912317
H           -4.72190844714583        1.93563983018587       -1.24104070180300
C           -6.77429313854018        2.59411268127037       -1.07075715519992
O           -5.90026937657418       -0.60848435202641       -1.42775829902492
H           -7.19436327636615        1.76808609419570       -1.65665560890259
C           -7.79400400396154        2.98951689529311       -0.00634984089849
C           -6.51575020691097        3.76810153251291       -2.01487337149462
H           -7.37332351240121        3.73521604174896        0.66408939730717
H           -8.67836297504083        3.41105429792455       -0.47791101041056
H           -8.10285479783940        2.12689979745715        0.57716887513322
H           -5.80386253970337        3.49754934454909       -2.79243352499175
H           -7.44013552781730        4.07938310718069       -2.49454771914138
H           -6.11426739312138        4.61427674225330       -1.46201561108782
N           -7.32377369543427       -0.64848600454064        0.36006873451647
H           -8.57929902144003       -0.56415105143794        1.69580913996854
C           -8.15552882390365       -1.65399543521801       -0.25948663617732
H           -8.34751876023112       -1.42279307600732       -1.31560064226760
C           -7.54126639772088       -3.05536835164226       -0.16937871543801
C           -9.49441241144847       -1.66351728753508        0.49439925459423
H           -7.26744730683830       -3.27602034839281        0.86054508060442
H           -8.27030641341267       -3.78592912945114       -0.50868427258977
H           -6.65489984365064       -3.11537744116641       -0.79613616382053
O           -9.47401407636714       -0.96764390906371        1.62405449878214
O          -10.45702825969891       -2.26116239072078        0.10209669584296
