42
 energy: -62.486133523243 gnorm: 0.000478784765 xtb: 6.7.1 (edcfbbe)
N           -3.10576699879259       -1.94762510210866        0.54162962522323
H           -3.66521561201869       -2.45923298563894        1.21859932994986
H           -2.13481932632250       -2.19556669890184        0.68978138965158
H           -4.38388125852967       -1.77088913624849       -0.86532554731248
C           -3.30285553728842       -0.50732661709195        0.69103537354756
H           -3.29351259130300       -0.15806315545117        1.73260535714878
C           -2.23092290820208        0.24557838198123       -0.09919846871809
C           -4.66443818218020       -0.19381955433249        0.09280406473235
H           -2.24102623807210       -0.07317626307508       -1.13931447545185
H           -2.42505251105163        1.31262422115618       -0.05236573988464
H           -1.24524607409571        0.04746085450535        0.31620341330309
O           -5.04085973277412       -1.04148910131857       -0.87760860492713
N           -5.29087938294630        0.82279002311756        0.49151327946413
H           -8.97356025346084        0.97965023134025       -0.62565385961683
C           -6.62029283104257        1.13146379647876        0.02417740992612
H           -6.99136199307796        1.93412268694561        0.67912695444931
C           -6.61028012046999        1.63509365443118       -1.43652349891506
C           -7.56385927819300       -0.04826789972342        0.18877422759384
H           -5.91438994248287        1.01206859396445       -2.00099900389562
H           -7.59711160283120        1.50882486182516       -1.89216552067986
C           -6.20933138877153        3.10830997641152       -1.56803120403839
O           -8.83133332777563        0.10009602739181       -0.25274691700317
H           -6.85745204745887        3.70374462313121       -0.91289451092941
C           -4.76043015179383        3.33339052305994       -1.14766880039898
C           -6.42059674254238        3.57347084593898       -3.00823483945549
H           -4.08919074813990        2.80274254778024       -1.81992919771897
H           -4.51635680865672        4.39278164257297       -1.18253182043189
H           -4.59765862396408        2.96547762850298       -0.13823131227834
H           -7.46285619628351        3.47323122737282       -3.30448783150430
H           -6.13531299421016        4.61718036343378       -3.11448099163397
H           -5.81262381488311        2.98180619832787       -3.68900252978871
N           -7.16969141690633       -1.06503914621509        0.81088020894124
H           -5.87073703494093       -1.76187458956238        1.70539215218666
C           -7.94676741709518       -2.25235981189322        1.05667925146836
H           -8.83360865955907       -2.02526490976039        1.66320599507799
C           -8.38772980469208       -2.96561017481044       -0.22389999233878
C           -7.03590984258130       -3.19120991544280        1.87008867545017
H           -7.53061409524268       -3.10362982629481       -0.87980829844682
H           -8.80078444749916       -3.93643852638480        0.03510535477128
H           -9.13875740512401       -2.37619973169163       -0.74220882132479
O           -5.83653192359554       -2.66843975843121        2.11351986443899
O           -7.36642794806811       -4.28453537049045        2.23415738639009
