42
 energy: -62.486133501654 gnorm: 0.000481496716 xtb: 6.7.1 (edcfbbe)
N           -1.08000884270337       -0.46796590076732       -1.14679706887483
H           -0.44727136169374       -1.03879989514400       -1.69419733123297
H           -0.67220833384943       -0.35945612521030       -0.22206413929489
H           -2.09964517351285        1.14345577026285       -1.32079006527155
C           -2.39309108866709       -1.10432390200208       -1.03628559757301
H           -2.68554508511447       -1.42425999004204       -2.04426563206286
C           -2.44733675665371       -2.30465599348719       -0.09639942113219
C           -3.39480723231067       -0.02596114514157       -0.63056439827869
H           -2.12347569261589       -2.01506014254524        0.90136472769688
H           -3.47110949952146       -2.65653155989335       -0.03696473683198
H           -1.80541319653369       -3.10481280928384       -0.45972896319390
O           -3.00097708279865        1.22532186847577       -0.94681051106897
N           -4.45646549699457       -0.38785566599162       -0.07661504839473
H           -7.64245238692236        0.45972004520665        1.62855061919148
C           -5.56920789252231        0.41747928142633        0.34314572764863
H           -5.46072709690355        0.56380901400163        1.42859272968284
C           -5.71608792906371        1.78419654621580       -0.36200266386872
C           -6.80979130998532       -0.41252250619352        0.09098346708916
H           -4.79039158001030        2.34075902963577       -0.21668197880586
H           -5.81802375686829        1.57869913205493       -1.42961719319125
C           -6.88714451674361        2.66024247015853        0.09766226949643
O           -7.87506089034988       -0.18624746447153        0.95088243221141
H           -7.82643048786410        2.10316233531366        0.01304582847777
C           -6.70820991118727        3.14209299803010        1.53803402340383
C           -6.99331826203185        3.87042052397913       -0.83014248206434
H           -5.80556115004580        3.74430665849716        1.61830434456950
H           -7.55477311505674        3.75582163712087        1.83872353965620
H           -6.62276013457162        2.31975011264416        2.24714868871999
H           -7.17318696312228        3.55185402605702       -1.85373220469249
H           -7.81373444954079        4.51516486144858       -0.52310863670783
H           -6.07240726562412        4.44897917397625       -0.80648834510542
N           -6.82353528312669       -1.24175447150939       -0.84046156175261
H           -9.16919839398281       -0.29500857187272       -0.30279124047075
C           -7.89635676365666       -2.12492598692623       -1.21482496940768
H           -7.47212061157329       -2.78665682388137       -1.97886321672066
C           -8.44541014310771       -2.97793307620715       -0.06257881307757
C           -9.06647793542553       -1.38428523409892       -1.88057665127222
H           -8.93156046793717       -2.36440769721069        0.69277004911888
H           -9.16428632330135       -3.69426993473986       -0.45254507495741
H           -7.62496822116354       -3.51714942920336        0.40530246356589
O           -9.61293608725161       -0.40073505811152       -1.16589690378340
O           -9.48271707508174       -1.68168210036921       -2.96378095923053
