42
 energy: -62.486133514226 gnorm: 0.000479156965 xtb: 6.7.1 (edcfbbe)
N           -2.09018345555262       -1.15854848569249       -2.29590703997672
H           -1.40636346440292       -1.84858940368627       -2.58041561858226
H           -1.68870800096593       -0.23986241619088       -2.46264624180015
H           -3.93478462877418       -0.71810376072045       -2.54036438308154
C           -2.43176744484171       -1.30376582265373       -0.88306208841303
H           -2.58706969368458       -2.37277064698604       -0.69008689227962
C           -1.37925134266927       -0.76475232754181        0.08436609343167
C           -3.77909745630729       -0.62214065287879       -0.67176848255685
H           -1.19049053389328        0.28763126155301       -0.11882774338038
H           -1.74373589332037       -0.85602773615927        1.10176585911357
H           -0.44788429381106       -1.31801036096722       -0.01814747378493
O           -4.48092986922791       -0.40414418842406       -1.78934656977812
N           -4.14824370798165       -0.35800343397756        0.50381117762335
H           -5.71098242732746       -1.84060145383105        1.87673152565029
C           -5.43669858051112        0.26313300054800        0.78535722490909
H           -5.43007355540106        0.44053217960748        1.87047725285699
C           -5.66385547345744        1.58779900892556        0.05423595937917
C           -6.48353462474911       -0.78268187536262        0.48050395772267
H           -4.78046838808176        2.21168374390937        0.21040758483144
H           -5.74993682044271        1.37819866580562       -1.01071236857374
C           -6.91360151240526        2.33869962900931        0.52586703820677
O           -6.46080429577241       -1.88161810239312        1.26939314169122
H           -7.73763473532619        1.62294387240909        0.59915780828467
C           -6.69983855849074        2.99058574519798        1.89038376843680
C           -7.28834882346213        3.40257278988530       -0.50439564283724
H           -5.88490977065614        3.71030026674936        1.84240262541459
H           -7.59987821184906        3.51491191582237        2.20331932292911
H           -6.46051023365602        2.25199282347160        2.65129828796845
H           -7.50580373299330        2.94594581796749       -1.46671671787114
H           -8.16812287860837        3.95373944727110       -0.18056391632133
H           -6.47093898026234        4.10900634147105       -0.63427132507010
N           -7.25965006297443       -0.64608084664614       -0.49748368531842
H           -7.35926281085018        0.02163820681846       -2.16482436712790
C           -8.20370566528002       -1.65876615968898       -0.89878832410277
H           -7.83527140568808       -2.67526249938168       -0.70736556171599
C           -9.54752398768360       -1.47383818257124       -0.18709335105483
C           -8.42329802240755       -1.48796763491658       -2.41132488883950
H           -9.90491184841052       -0.45585672737983       -0.32850839013398
H          -10.27219743974987       -2.16712725462109       -0.60470056874369
H           -9.43376334151049       -1.66565615885492        0.87718894108505
O           -7.84482142242162       -0.40484076026105       -2.91208107924463
O           -9.06733383309479       -2.25832339615577       -3.06832946939444
