42
 energy: -62.486133505979 gnorm: 0.000480783660 xtb: 6.7.1 (edcfbbe)
N           -0.71271621332767       -0.05593843164444       -0.56513246872889
H            0.08403790756009       -0.44059851867659       -1.05804794526376
H           -0.53323263572451       -0.15038919715824        0.43060061648354
H           -1.83327867605234        1.50625700913987       -0.64689023530512
C           -1.94159802932029       -0.76433537285136       -0.91887608968162
H           -1.97354550998143       -0.82168223155302       -2.01538830497213
C           -2.05114457392495       -2.17439200659596       -0.34155842980490
C           -3.10392261526593        0.13507665090406       -0.50422067305606
H           -2.13253931594742       -2.13467887435550        0.74239857603030
H           -2.92728399324428       -2.67622033341555       -0.73847744383489
H           -1.16925430917755       -2.75397115226560       -0.60876438752840
O           -2.79552292062707        1.43904632498547       -0.47563827788625
N           -4.20562707270877       -0.39488196797095       -0.21843891688565
H           -5.06175509527429       -1.97045132386229       -0.10115006784602
C           -5.45943665762409        0.26051877817037        0.10043377917965
H           -5.46997588478190        0.46337612355384        1.18029548613298
C           -5.66287893517105        1.57635814981571       -0.66620756413726
C           -6.51409564437718       -0.81181053602738       -0.16385815998556
H           -4.84735892867257        2.23955307207815       -0.37444965479781
H           -5.54997046588809        1.36001178358366       -1.73147295036490
C           -6.98216276495108        2.32588010758961       -0.45452429422347
O           -6.03885861306578       -2.06470221390168       -0.14705021111361
H           -7.76913589754090        1.80238576279786       -0.99935704808709
C           -7.37218905572621        2.41735539516137        1.01736568073969
C           -6.85105585059680        3.72810862915400       -1.04953421615310
H           -6.56902568053096        2.86756001215705        1.59785224287054
H           -8.25999555829113        3.03539249331619        1.12973106370192
H           -7.59012571145845        1.43227954832817        1.42094532778239
H           -6.55676875573327        3.67599723538089       -2.09500846027462
H           -7.80055181695918        4.25413586851843       -0.98802092090561
H           -6.10257305970200        4.30555127183710       -0.51035111469478
N           -7.72153117477380       -0.52872643967636       -0.39407989810845
H           -9.20802473714109        0.61140172977179       -0.44416222540257
C           -8.68008408850862       -1.58889547248524       -0.63638002257798
H           -8.31379941364868       -2.29944373129165       -1.38725833117066
C           -9.02387448741436       -2.35981732796796        0.64555151244208
C           -9.97492519814073       -0.94222271146411       -1.13834684603184
H           -9.37222550367809       -1.67070518702306        1.41319052050670
H           -9.80844524551557       -3.08070930341597        0.43273410710765
H           -8.14304057118016       -2.88223270778208        1.00924128723705
O          -10.06502468370755        0.35172777753560       -0.84956087491204
O          -10.84167382300192       -1.55319456690502       -1.69919916075154
