42
 energy: -62.486132340086 gnorm: 0.000614218796 xtb: 6.7.1 (edcfbbe)
N           -1.55869646401150       -1.71110631263404        0.99935499957770
H           -1.32813087331567       -1.16290464765710        1.82144825792090
H           -0.73243855712813       -2.23126709922526        0.72991669193096
H           -3.45157725921307       -2.00826052720067        1.30034148369425
C           -2.00884402419296       -0.84771540065408       -0.08980959237813
H           -1.43815815167689        0.08655171208922       -0.18412084663074
C           -1.94171754214796       -1.60723413604918       -1.41625335046649
C           -3.45951772859253       -0.49461282353950        0.19117302096294
H           -2.54220023008911       -2.51337387826513       -1.36301224042118
H           -2.31169143005708       -0.97609321758357       -2.21931326282613
H           -0.91381414770879       -1.88466895113061       -1.64001631384095
O           -4.10927703550860       -1.35096560180105        0.99363958448865
N           -3.96342347037695        0.53012896361066       -0.34237043449294
H           -4.98418070992763       -0.93397425835685       -1.71305046738493
C           -5.36457045622603        0.84662923862944       -0.14479432269206
H           -5.53234054801178        1.14220552545442        0.89591351604430
C           -5.69603027133746        2.01948881489942       -1.08493827374016
C           -6.26781145167570       -0.32902537868735       -0.44248199729653
H           -4.96624881087089        2.80503757446868       -0.88286823652869
H           -5.53732927980018        1.68310765722353       -2.11271848216438
C           -7.11296598125440        2.58317264846646       -0.95259233644078
O           -5.85374006354387       -1.20166301934655       -1.38252357959407
H           -7.83060125476407        1.77038831681834       -1.10078538317885
C           -7.35509312311168        3.19872444258514        0.42295310186045
C           -7.34170192386635        3.63286630737736       -2.03947312313300
H           -6.63902405683594        3.99588503858128        0.61277503808997
H           -8.35698617972944        3.61772358115199        0.47258754879998
H           -7.26339612304893        2.45396632622650        1.20841995503728
H           -7.20111580731009        3.20372112656855       -3.02893994009984
H           -8.35347029935248        4.02570707745095       -1.97893691270758
H           -6.64435854756336        4.45978500181945       -1.92156114216929
N           -7.40084915390082       -0.38408650053536        0.10405198644924
H           -8.76212897224922        0.46235327634405        0.96111605058164
C           -8.33887046680438       -1.44050829625334       -0.20109974467830
H           -8.35895508622846       -1.67695077753115       -1.27298257208798
C           -8.01091926126608       -2.71661779089961        0.58155667075276
C           -9.73053223356018       -0.95119780004509        0.22431510599680
H           -7.94695493509049       -2.49201102818046        1.64420973761574
H           -8.79356575656147       -3.45173060132680        0.41671020013432
H           -7.05710455256389       -3.11767881454279        0.24832526164047
O           -9.70592939851420        0.18062089975458        0.91784399640781
O          -10.73992963654012       -1.54644248561773       -0.03307450960119
