42
 energy: -62.486133512107 gnorm: 0.000479942229 xtb: 6.7.1 (edcfbbe)
N           -0.83112227253749       -0.30656783959290       -0.89118770865230
H           -0.07818245337457       -0.91079011806391       -1.19626832229389
H           -0.50866040232558        0.19132438627038       -0.06583740294927
H           -2.03373002003513        0.97236028884673       -1.58951250765040
C           -2.02891358379273       -1.07960885781787       -0.56647314819122
H           -2.17203249291722       -1.81222012164141       -1.37147851989456
C           -1.97154354048027       -1.81000564112328        0.77267243004174
C           -3.21733059630376       -0.11758937244756       -0.62550791295264
H           -1.79473267227827       -1.09954113087959        1.57776321827772
H           -2.91979684798655       -2.30345639489525        0.95626339884584
H           -1.17290976818120       -2.54905203068547        0.76981669049071
O           -2.97898515874879        1.00245337626940       -1.32978854635671
N           -4.28077350427316       -0.45970859104401       -0.05337272245411
H           -5.29050748345556       -1.19286798317748       -1.87655626436604
C           -5.53228889330130        0.25269962236287        0.01746771113756
H           -5.76199172725961        0.32825461712781        1.08519205836018
C           -5.59399486177923        1.65376876731500       -0.62046498855473
C           -6.59032207973838       -0.63197256706876       -0.61101410000299
H           -4.77544096108244        2.24832714055308       -0.21181369532735
H           -5.42758945165600        1.55922458986624       -1.69634670064995
C           -6.91478493533440        2.39425826773788       -0.38419843130858
O           -6.23742410783403       -1.31169195914756       -1.71758161018121
H           -7.74083534701162        1.76548042242335       -0.73005022449124
C           -7.13448224082645        2.71571458820840        1.09197072667391
C           -6.91791963585081        3.68612578080781       -1.20091517302768
H           -6.31217238404998        3.31651436639200        1.47591847928386
H           -8.05668549810273        3.27775535005863        1.21660189282033
H           -7.21160462038260        1.81029792848484        1.68754313148226
H           -6.79905618439903        3.47471688289665       -2.26115898345267
H           -7.85523292854203        4.21915793153542       -1.06239740835481
H           -6.10329843276671        4.33589026233627       -0.88728375857010
N           -7.74389496289618       -0.66625320810168       -0.10798525275949
H           -9.01324607849247        0.15963029847270        0.90384572331029
C           -8.81342057409740       -1.43845564336591       -0.69980858547744
H           -8.79554647569298       -1.39678102985500       -1.79638637613459
C           -8.75215881504373       -2.90504154269726       -0.25972725503933
C          -10.13706628528906       -0.83691016158086       -0.20399603061364
H           -8.72743335650647       -2.96551511466269        0.82631228437095
H           -9.63149568087250       -3.42665311005562       -0.62688582513253
H           -7.85740985077452       -3.37427039495639       -0.66107637830544
O           -9.98349538851176        0.06284326882114        0.75999613242110
O          -11.20667870693930       -1.16387110428162       -0.63735502053701
