42
 energy: -62.486133511737 gnorm: 0.000479825189 xtb: 6.7.1 (edcfbbe)
N           -0.97902444398960       -1.20526512127717        0.34372271151707
H           -0.01198962874468       -1.17624382317243        0.04524370112771
H           -1.23345585378367       -2.18340211161618        0.45367503413094
H           -2.12673343630237       -0.39156768001122        1.63852027507384
C           -1.85241226654827       -0.57362962426871       -0.64561709679843
H           -1.37454336115124        0.36444807624062       -0.95468338829559
C           -2.14024079473238       -1.42269511706321       -1.88164336204084
C           -3.13857944999290       -0.18727407239760        0.06687940058752
H           -2.58199286919309       -2.37342199220017       -1.58933195902275
H           -2.84585695330758       -0.90012688485220       -2.51824096981637
H           -1.22329097552377       -1.61381362878158       -2.43507091888197
O           -3.05098422161507       -0.15424098719838        1.41885896879284
N           -4.17604990081815        0.05839005703099       -0.59525944602989
H           -5.04314958297509       -1.51783349204047        1.22157326615786
C           -5.39192492767981        0.52096721923230        0.04593112362147
H           -5.20375831276461        0.83416840863493        1.08556361162893
C           -5.94503640335629        1.68882842508853       -0.77331896707135
C           -6.32778178096964       -0.66639620690091        0.08285946092209
H           -5.13257488279924        2.40022863135115       -0.93388903851019
H           -6.23923643222103        1.29470693105136       -1.74550568616545
C           -7.12828366087442        2.40493218491029       -0.11254259249211
O           -5.90357781570185       -1.71312992099572        0.82600477725586
H           -7.81518449340170        1.65000332413754        0.28035096635073
C           -6.66664519402266        3.29641635439847        1.03905878367431
C           -7.86966558355084        3.24430773373936       -1.15145183282835
H           -5.99410435623660        4.06977015207680        0.67305218776800
H           -7.52034114568593        3.78067663680907        1.50759826146845
H           -6.14607016366147        2.72270430622244        1.80180577687111
H           -8.25649619500475        2.61919465785583       -1.95226005142266
H           -8.70586650853298        3.76570760917703       -0.69172421625073
H           -7.20150738589037        3.98551365979619       -1.58497802378180
N           -7.41478825641920       -0.65901021904415       -0.54621092338375
H           -8.46471758512661        0.09867947680734       -1.79749951180880
C           -8.31967135953657       -1.78422165683013       -0.55209538613226
H           -7.79031289237460       -2.73351271027270       -0.70163954788470
C           -9.13234469729556       -1.87036442405983        0.74449371189434
C           -9.29464027499114       -1.56690650297457       -1.72096525867633
H           -9.63861653827129       -0.92508151364969        0.93007201193317
H           -9.87454203793160       -2.65781926769987        0.64951794959384
H           -8.47454141936915       -2.09173520354350        1.58119667358821
O           -9.19928109241109       -0.36265553667595       -2.26955409741443
O          -10.07637612953323       -2.40132198633937       -2.08356132572254
