42
 energy: -62.486133508988 gnorm: 0.000479996333 xtb: 6.7.1 (edcfbbe)
N           -1.87700890137750       -0.40405457215948        0.73285438598968
H           -1.23359094353282       -1.00358375404011        1.23817344828514
H           -2.50694646904042        0.03125363232508        1.39879191367139
H           -3.81539704226868       -1.16548685001005       -2.35267271464985
C           -2.65900667670808       -1.17920399741911       -0.20760618890244
H           -2.04280551135795       -1.32851864298908       -1.10904395347816
C           -3.10722786664930       -2.55601479959163        0.32242500864963
C           -3.90912316226912       -0.41613952796990       -0.57327903629580
H           -3.70987340509215       -2.41983835041908        1.21777018999854
H           -3.70175060939974       -3.08667646758422       -0.41890152753693
H           -2.23704366222408       -3.16221356478502        0.56596691014345
O           -4.38251985002891       -0.57783700726198       -1.83849662446225
N           -4.47901290134892        0.27123651000036        0.30803394371466
H           -6.61165649120892        0.68057792148940       -2.24403840504633
C           -5.72412467486672        0.97766051349690        0.06885550669232
H           -6.05492227801706        1.29006410072282        1.06522783390657
C           -5.49246360346381        2.21380802922888       -0.80692008416773
C           -6.76064324230046        0.00274780502524       -0.46030366479630
H           -4.66922970001036        2.77397025037378       -0.35731128485486
H           -5.14716331724775        1.89942675613339       -1.79776821287198
C           -6.71372910963077        3.13425548696240       -0.93853224427211
O           -7.13114113332181        0.03303975515273       -1.75106199481219
H           -7.59393957715842        2.54259471078648       -1.21561400125010
C           -7.01810548814730        3.84655445152033        0.37740725892064
C           -6.45623975406933        4.16266966413735       -2.03982422275883
H           -6.15214071053322        4.41407581622641        0.71108454271650
H           -7.84947494656507        4.53518530277054        0.24610219146352
H           -7.28868869141643        3.13782067664809        1.15547663557344
H           -6.28201683393726        3.67796364248178       -2.99869226947038
H           -7.30983811313602        4.82741651813774       -2.14640415993348
H           -5.58260805771633        4.76355590381369       -1.79661515341979
N           -7.20520276565697       -0.84855464699682        0.35718192308963
H           -7.45028753778895       -1.38845713003988        2.05980687418904
C           -8.13079663198184       -1.88472943214991       -0.03932835436837
H           -8.94230639906020       -1.49339117802253       -0.66558414200511
C           -7.42080060598621       -3.01375398061979       -0.79543926625792
C           -8.73184070639505       -2.46972252939105        1.24832389969924
H           -6.58997756735222       -3.38912076801854       -0.20028986343432
H           -8.12317522482270       -3.82240223848187       -0.97634408797378
H           -7.04170095240713       -2.64248284698666       -1.74455821329465
O           -8.13410069920315       -2.03819675101930        2.35165499164892
O           -9.63656944092237       -3.25752409310122        1.24842759050910
