42
 energy: -62.486133513668 gnorm: 0.000479402178 xtb: 6.7.1 (edcfbbe)
N           -0.93222839802867       -0.51443811497869        0.65295603228842
H            0.02497418874913       -0.66130032412403        0.35647444598881
H           -1.15038755240692       -1.22563740386057        1.34568892971914
H           -2.11194568361571        0.91098341063074        1.23888537063392
C           -1.85413703921042       -0.62318797308546       -0.47640424667018
H           -1.44669901450184       -0.00391113054848       -1.28697597350455
C           -2.06789961488904       -2.04615693209140       -0.98986877335906
C           -3.15891445310956        0.02777544354376       -0.04290223128945
H           -2.52337540483631       -2.66063027038418       -0.21620660756444
H           -2.72631883789163       -2.03481672259067       -1.85195876439405
H           -1.11602485625373       -2.48773896900304       -1.27886553750855
O           -3.04171883319772        0.93508542516201        0.93581645651201
N           -4.24006235510098       -0.28696042353982       -0.60597614227984
H           -5.30852158499336       -1.33993741980061       -1.77545065497229
C           -5.49015384335232        0.33895267149928       -0.22586635206018
H           -5.53326785442037        0.53707335599147        0.84972676734844
C           -5.65676928076003        1.66331163810346       -0.99633618121316
C           -6.57912102269251       -0.63645895017274       -0.61306034586811
H           -4.81841806755612        2.30765730706498       -0.72208990737722
H           -5.57668746859515        1.44413253358008       -2.06476761441660
C           -6.97220894918214        2.39916113221503       -0.72833643544901
O           -6.26050583419530       -1.48101368580899       -1.60113435377776
H           -7.80352270207911        1.72636644990246       -0.95886890113298
C           -7.09022900714195        2.83916768980595        0.72832401609813
C           -7.06534203881359        3.61483727856552       -1.64964019845938
H           -6.25782794755445        3.48642471592958        0.99731259453753
H           -8.01620572490186        3.38860411408344        0.87796692950276
H           -7.09452264224243        1.98317985442802        1.39692511166522
H           -7.01353440366444        3.31504704193337       -2.69389220426661
H           -8.00570413337787        4.13644344079788       -1.49093780877372
H           -6.25039067951509        4.30772592975858       -1.44951222381096
N           -7.68796462238331       -0.61054654415405       -0.01313230771401
H           -8.92915262734250        0.37206525791977        0.88522627611675
C           -8.76392977181829       -1.50524453500547       -0.38058226751189
H           -8.80404232882637       -1.68236479396416       -1.46297063901471
C           -8.63360358658037       -2.85295346600438        0.33722982905008
C          -10.07802962603491       -0.84545001262798        0.06145697030880
H           -8.54490245067977       -2.69393557131882        1.41007609818490
H           -9.51616868384209       -3.45387019321353        0.13697349887394
H           -7.74960146038609       -3.37682007366588       -0.01809461685039
O           -9.90289030610568        0.23120934333069        0.81859982101299
O          -11.15823475688018       -1.27385637901731       -0.23687287201186
