42
 energy: -62.486133493438 gnorm: 0.000483218122 xtb: 6.7.1 (edcfbbe)
N           -1.94614063220653       -0.10495458693799        0.94935553712735
H           -1.22496603016764       -0.57094053428669        1.49024900031341
H           -2.58385926317764        0.35235028145932        1.59260009124397
H           -3.69031481199103       -1.18832664856311       -2.04936240568575
C           -2.69559110388380       -1.07702693267716        0.17266635305475
H           -2.07626662709635       -1.34345829820354       -0.69845207630952
C           -3.04189279320796       -2.36042512254032        0.94691020317303
C           -3.97648893677838       -0.42333945148621       -0.30493878974670
H           -3.66895404079077       -2.11189254003973        1.79931182207624
H           -3.57106032972169       -3.07247962549749        0.31948794624533
H           -2.12784362161338       -2.83109955669818        1.30460794731848
O           -4.33970571109358       -0.64057630333571       -1.59026856268769
N           -4.64000742985864        0.23822115101633        0.53091192155840
H           -8.18165975803870        1.63240803504532        0.17682495065175
C           -5.83452817578915        0.98875129387197        0.23424092687439
H           -5.97258452442578        1.64102882873971        1.10903905575260
C           -5.67124000292222        1.85653682423106       -1.03432162798071
C           -7.04160423466204        0.08157435034235        0.16057786838136
H           -4.65645025817597        2.26119218003871       -0.99199566222954
H           -5.72759816581631        1.20006772745277       -1.90392529442295
C           -6.64298743560658        3.02679256662434       -1.23629542100560
O           -8.25707162896932        0.67211113855865        0.12135959084716
H           -7.65354068873448        2.64603357795364       -1.42722021565824
C           -6.67619345636425        3.98452148406368       -0.04519616690425
C           -6.21281981390644        3.79229034857570       -2.48950279525851
H           -5.67076986920408        4.33096090378542        0.18360885928131
H           -7.28931993348965        4.85150580197935       -0.28237730975437
H           -7.08759044536844        3.52474797122770        0.85193250582824
H           -6.17997528931225        3.13030680899520       -3.35152309544608
H           -6.91120314596447        4.59819819868176       -2.70295822366443
H           -5.22396189131144        4.22309384190909       -2.34948899985738
N           -6.89871525098647       -1.16664316294141        0.21455281868988
H           -5.85215840063932       -2.55901827028536        0.51886875485957
C           -8.01765568857758       -2.07864375418730        0.16710862562566
H           -8.78857397883939       -1.80792826853019        0.90016926412014
C           -8.65802604364100       -2.14150418942702       -1.22345526908895
C           -7.47003250265581       -3.47167418269784        0.51613208372260
H           -7.89295468868688       -2.33195129919790       -1.97368240644025
H           -9.38630917288286       -2.94741633240902       -1.24385552339542
H           -9.15173952590392       -1.20039123075452       -1.45054164905200
O           -6.14910476632486       -3.49496565046477        0.64671141293810
O           -8.16673111602178       -4.44006287907154        0.64106899775445
