42
 energy: -62.486133502110 gnorm: 0.000480704852 xtb: 6.7.1 (edcfbbe)
N           -1.29978086411517       -0.64806953254822        0.43487068568531
H           -0.53323263559064       -1.27156802425233        0.21201062512054
H           -1.36520004589753       -0.59610500087825        1.44808381454392
H           -1.99060361568041        1.07006404308627       -0.04742158433671
C           -2.55880565097486       -1.15218797140781       -0.11302165884635
H           -2.37067937165794       -1.42251974100708       -1.16041571024752
C           -3.14214987580921       -2.35646151585163        0.62105091213464
C           -3.54089302541859        0.01527869027504       -0.13587232277321
H           -3.29289028830579       -2.11671762095371        1.67136195753337
H           -4.10516127142746       -2.60572579731625        0.18950967159214
H           -2.47424061945741       -3.21187564007220        0.54314688547165
O           -2.95195137499621        1.22876247648191       -0.14614559492575
N           -4.76739015324643       -0.23825884203692       -0.14531584734369
H           -7.19419892829050        0.74685522682846       -2.29831199527825
C           -5.85036922736525        0.71838481241728       -0.19606688773136
H           -6.02799994355229        1.05282746262351        0.83433668378979
C           -5.62384181296236        1.94417233679309       -1.09068331600389
C           -7.05495255874955       -0.12539810971008       -0.59424962004905
H           -4.68582569118393        2.41036763186685       -0.78997080381678
H           -5.48477907519205        1.61678205154330       -2.12799598437308
C           -6.74276842016925        2.99358217156360       -0.99475774929736
O           -7.62216706417052        0.03573379804807       -1.80460303958670
H           -7.72202417802128        2.50014717392688       -0.98954186658415
C           -6.61920179022288        3.80095827989523        0.29584528693650
C           -6.67782603949930        3.93105099688117       -2.20042217169580
H           -5.66406496501370        4.32092059629259        0.32669787681680
H           -7.41475704251567        4.53993603040253        0.35641314701822
H           -6.68951891659575        3.15766353455058        1.16925551581771
H           -6.82043196382787        3.38814307987557       -3.13339734395308
H           -7.45065695900014        4.69275620794382       -2.13163277052221
H           -5.71049124759417        4.42747322668927       -2.23844583359725
N           -7.43839886970647       -1.00026386121984        0.22491447183069
H           -7.28879241057991       -1.77460446303124        1.83212632987239
C           -8.51639324522621       -1.91968895701696       -0.05300060021726
H           -9.41443739054409       -1.39826802390923       -0.40740561594042
C           -8.12422183512139       -2.98456313892716       -1.08382746508560
C           -8.84119531518124       -2.63179598916015        1.27016437959573
H           -7.20495366102544       -3.47719820657911       -0.77362033806084
H           -8.91876565849624       -3.72211790466733       -1.15536399640321
H           -7.96870412690953       -2.52341589364382       -2.05539741528545
O           -7.94161629990045       -2.40847826389270        2.21917262643215
O           -9.79985783255883       -3.33860316851776        1.41686182520127
