42
 energy: -62.486133514684 gnorm: 0.000479097985 xtb: 6.7.1 (edcfbbe)
N           -1.36513375395573       -0.44706240674490        0.57311764793968
H           -0.58872968750576       -1.07524696362365        0.40200653737683
H           -1.42715340099106       -0.30698641750121        1.57814747500785
H           -2.09424985214316        1.18191990959132       -0.15417002204600
C           -2.61818094817750       -1.02699439147998        0.08271068390203
H           -2.43605731260915       -1.34259260544658       -0.95387530868435
C           -3.12888476261243       -2.21692020688760        0.88783456457321
C           -3.63008824871433        0.10938099525815        0.01214069398395
H           -3.43089415407385       -1.89878853363715        1.88202596094143
H           -3.98846064882578       -2.65552908644835        0.39542710057297
H           -2.34873907913196       -2.97097833042221        0.97540826814665
O           -3.06187914272799        1.31570206386328       -0.21823972340915
N           -4.84595088757309       -0.13332921715841        0.18942664510200
H           -8.25251181638791        1.61220164437367       -0.03240801624760
C           -5.92730697522086        0.81510995431312        0.06698501727753
H           -5.94043993242584        1.46914514645231        0.95029183337907
C           -5.78859642249437        1.66738649366903       -1.22015877745212
C           -7.20441471062971       -0.00187162024554        0.05072493373018
H           -4.77380528714413        2.06420838906748       -1.22034386356364
H           -5.87589879367747        0.98365004382230       -2.06884367872549
C           -6.73460000771593        2.85700284181391       -1.43651046583075
O           -8.38411480647066        0.65681002584884       -0.03567537735548
H           -7.75223381935990        2.50630463668988       -1.64508841658876
C           -6.75176572672317        3.81327037205417       -0.24378420709536
C           -6.26983796674056        3.61312515834939       -2.68341404062482
H           -5.74009522214939        4.14635858123495       -0.02177768592062
H           -7.35587499608174        4.68840567030460       -0.47434262108935
H           -7.16113981406155        3.35610005260310        0.65611685605390
H           -6.24324319941422        2.95105731016869       -3.54564336287371
H           -6.94646341219049        4.43559312758840       -2.90420634876321
H           -5.27248837532131        4.01964552506131       -2.53158234008265
N           -7.14173266351679       -1.24379074200552        0.22095883825108
H           -6.15324291839895       -2.58267875581829        0.77590664655822
C           -8.29607795636290       -2.10229147611346        0.28457636480356
H           -9.07353578506963       -1.69557901662401        0.94527615572852
C           -8.90813706132134       -2.35739015428713       -1.09608209780964
C           -7.80317511721490       -3.43967425797749        0.86719507366007
H           -8.13791901802590       -2.70127625360900       -1.78337091030221
H           -9.67619249752250       -3.12095434852875       -1.01055943584929
H           -9.34792950135563       -1.44188686606334       -1.48353840709442
O           -6.49118160701143       -3.47727089616883        1.04794529942165
O           -8.53783386689742       -4.35531112317942        1.11832718642730
