42
 energy: -62.486133518657 gnorm: 0.000479038116 xtb: 6.7.1 (edcfbbe)
N           -1.16103640401896       -0.58690446021698       -1.49427757952278
H           -0.34329972157613       -1.17009740847985       -1.62375506998319
H           -0.83821687688769        0.32891485880579       -1.19367303754862
H           -2.76459871482382       -0.15627749341608       -2.42986053098824
C           -2.05495948548229       -1.15252168761949       -0.48347334569627
H           -2.17089348748135       -2.22007517029326       -0.71327004228839
C           -1.57849282518520       -0.99736333611105        0.95740556430221
C           -3.41993480905324       -0.51248445191521       -0.69268134736082
H           -1.42401093016851        0.05419157903128        1.19019401151847
H           -2.33549793057748       -1.38732954987981        1.62898546196456
H           -0.64560805545385       -1.53607807714575        1.11000410237043
O           -3.62600692642000       -0.07965632552692       -1.96866739326816
N           -4.24407420392414       -0.48307683136607        0.24769188878998
H           -5.29093211771809       -1.03569222330810       -1.92399660629222
C           -5.55702350170430        0.11779594910056        0.22786165734396
H           -5.87605569370388        0.14005093597244        1.27371689456670
C           -5.54300550626074        1.55628578783443       -0.33476933443434
C           -6.56948956510331       -0.70558019332061       -0.53859589386053
H           -4.70877976456989        2.08248226709803        0.13635810924871
H           -5.34477385913139        1.51170020938988       -1.40820669113438
C           -6.83644101712564        2.34110146524394       -0.09770834347970
O           -6.17507384212573       -1.33336323399911       -1.65836386216051
H           -7.68066598237924        1.73563769525216       -0.44041985354222
C           -7.04076793381232        2.66975503385017        1.37878468642019
C           -6.80463992249908        3.63089500938820       -0.91713981684697
H           -6.20977272395381        3.26387183862641        1.75425083238730
H           -7.95679945556448        3.24027284335506        1.50953084735434
H           -7.11934294847863        1.76684987935573        1.97761284539434
H           -6.70535549221529        3.41434884552076       -1.97844912833394
H           -7.72293411177422        4.19351087717854       -0.76926363549916
H           -5.96686102954708        4.25560087125374       -0.61314854050905
N           -7.76906300996647       -0.67777985968288       -0.14850036239966
H           -9.07586638189204        0.09154119747135        0.85660903448708
C           -8.81938853350703       -1.35240747744709       -0.87614440994506
H           -8.71524280040963       -1.22207769492221       -1.96147572719943
C           -8.85099587407542       -2.85209120269697       -0.56185457309428
C          -10.15059525845835       -0.73312624582764       -0.42641887860734
H           -8.91061905618857       -3.00474197314611        0.51386771939594
H           -9.72025374886537       -3.29986771836997       -1.03521948509454
H           -7.94791757009441       -3.32657310273029       -0.93760756630589
O          -10.03546758570766        0.05947880287941        0.63283689212556
O          -11.19543660759492       -0.96114596901580       -0.96983439391881
