42
 energy: -62.486133502516 gnorm: 0.000481399881 xtb: 6.7.1 (edcfbbe)
N           -1.41708065943857       -0.67212309104509        0.45196777095093
H           -0.68898571013133       -1.35908237132524        0.29819032860803
H           -1.42648273792732       -0.45507000709181        1.44483313390501
H           -2.05188724053302        0.95695360052943       -0.30856840664986
C           -2.72308363502691       -1.19810904569393        0.05208757599879
H           -2.59912136875181       -1.64697817783877       -0.94221350673478
C           -3.31413609974476       -2.23525185831630        1.00222281091039
C           -3.65475469784764       -0.00196298276257       -0.12744308464932
H           -3.43882564333757       -1.80771845476402        1.99431733033312
H           -4.28882402226936       -2.54273398725095        0.64096447387551
H           -2.66239439012006       -3.10405668741211        1.06897821101685
O           -3.00810717934410        1.15462916786463       -0.39120782979784
N           -4.88695095530687       -0.19147830495207       -0.02547686951332
H           -7.69915711857062        1.04878606207746       -1.96263763606067
C           -5.95833331656307        0.76026694967105       -0.18618949226802
H           -6.14349503879183        1.18612822707581        0.81044186758402
C           -5.72810895723454        1.90938318849613       -1.18026316480621
C           -7.17355963123624       -0.10278923504786       -0.51591926925396
H           -4.70709462176652        2.26608853816639       -1.05209008372298
H           -5.79350767369795        1.52331909191644       -2.20375807117195
C           -6.68061924240337        3.10057626881623       -0.97584769377710
O           -7.99690009843429        0.24059486376535       -1.52574379077858
H           -7.68745972407166        2.74366517268652       -0.72440279517683
C           -6.19991763578379        3.97727540164199        0.17919945646964
C           -6.76422020457168        3.93142160585784       -2.25622315130907
H           -5.22347058030118        4.39913814472518       -0.04860504245797
H           -6.89654391780160        4.79461745687514        0.35126953803848
H           -6.11777142388685        3.40286816381802        1.09878871677083
H           -7.16057206054616        3.34781010287639       -3.08581108769666
H           -7.41219401020174        4.79230451417613       -2.10935194226584
H           -5.77598531015537        4.29125318535455       -2.53434129623764
N           -7.34689697018999       -1.12625116294710        0.19194663862260
H           -6.71375158837092       -2.13464018378254        1.49476044476396
C           -8.41071689861194       -2.08092121023773        0.01224256271683
H           -9.39584085284410       -1.60292425532106        0.08750933923043
C           -8.32854817111010       -2.83593689571890       -1.31878810102593
C           -8.26902124830873       -3.09947076984999        1.15936354830460
H           -7.33331151806415       -3.25862428635823       -1.44146171629820
H           -9.05960403510625       -3.63967101194339       -1.31706039958682
H           -8.53246503781611       -2.16196813478508       -2.14629069516919
O           -7.16502151889952       -2.93329696084020        1.87340283590859
O           -9.07146852403859       -3.96804647490104        1.36614374283959
