42
 energy: -62.486133509738 gnorm: 0.000480035304 xtb: 6.7.1 (edcfbbe)
N           -2.31514491069387       -1.15409717420941        1.78319325730691
H           -1.37693730309467       -1.53633423737762        1.78724908714957
H           -2.92316892410336       -1.83913991899226        2.22574433347291
H           -3.29582978189614        0.44273163629304        2.19969406868422
C           -2.77258644501357       -0.91212946116131        0.41485898083711
H           -1.98268963700788       -0.34581176131506       -0.09688563312033
C           -3.09028265641767       -2.17379634616625       -0.38421516906987
C           -3.98003548246464        0.00801278031252        0.51115460388620
H           -3.78319368482458       -2.80368521173587        0.16921155624329
H           -3.55438443019743       -1.89462747632025       -1.32366955610181
H           -2.18077325717723       -2.73780570520943       -0.58094588502882
O           -4.03307711597036        0.74908299659010        1.63346285638686
N           -4.82561236298169        0.02936047328847       -0.41822161358196
H           -8.25385604344776        1.30259801809408       -1.25339462242696
C           -5.98435216019672        0.88970197430436       -0.35124536527405
H           -6.00948265198703        1.45783001750632        0.59217929919736
C           -5.96233576224744        1.86407668326908       -1.54303890834653
C           -7.19639973804992       -0.02232488155489       -0.35175753369520
H           -4.92020524022610        1.99205245635654       -1.84139037819489
H           -6.47219700956836        1.40784818837674       -2.39626270079858
C           -6.55808524289066        3.24460739819098       -1.22621416840226
O           -8.35583208363052        0.41823694839227       -0.87855717912985
H           -7.46716812204691        3.12839336554967       -0.62072892222338
C           -5.56504293885300        4.08188241414988       -0.42238599757865
C           -6.92946967713742        3.96875680493800       -2.51946151409835
H           -4.68024927366896        4.28948029915365       -1.02026767143271
H           -6.01238923984546        5.02907575399107       -0.13011976886730
H           -5.25224077230796        3.55884875274144        0.47804065561826
H           -7.68189818759389        3.41678377506882       -3.08002094318882
H           -7.32568830050884        4.95756252407828       -2.30091075817949
H           -6.05107794306085        4.08422558531535       -3.15032204040708
N           -7.06200001447902       -1.14478650387994        0.19678783099113
H           -5.95116961278046       -2.20976140438188        0.97689234238967
C           -8.08039827918921       -2.15503469459981        0.31604831022248
H           -8.96217655688083       -1.77792795939276        0.84952349113215
C           -8.52152539706595       -2.72483500522785       -1.03550726219746
C           -7.44777928036979       -3.28710983243177        1.14921775210201
H           -7.64901081024575       -3.04176504005971       -1.60337137601988
H           -9.16871938901044       -3.58114376375907       -0.86787959656219
H           -9.05854722961441       -1.96893047793603       -1.60220160544682
O           -6.15694673670644       -3.09114419503894        1.39189112009845
O           -8.05623160176043       -4.25098364403386        1.52276187536963
