42
 energy: -62.486133520703 gnorm: 0.000479037136 xtb: 6.7.1 (edcfbbe)
N           -1.25208827366033       -1.56564979366436        0.70220023002072
H           -0.24063027227766       -1.55861867223414        0.66065035058054
H           -1.55908398173961       -2.51550720455966        0.51009333472273
H           -2.65416866706480       -0.95795947174424        1.86992137737413
C           -1.82714463322297       -0.64104623525705       -0.27344982970823
H           -1.24283928808015        0.28643049567844       -0.23501955763696
C           -1.85186479814009       -1.15792013259710       -1.71142593147514
C           -3.22751049301723       -0.28776529670010        0.20841610525184
H           -2.36951993761124       -2.11499296891970       -1.76297179287695
H           -2.37830596726360       -0.44564923266729       -2.33820509351010
H           -0.83917005993809       -1.28884583772410       -2.08623656582673
O           -3.46942181464522       -0.55690091530031        1.50506273785442
N           -4.04159279307874        0.25919076003130       -0.58424223578535
H           -4.77502766522958       -1.72088435285455       -0.37849750992314
C           -5.37925972665385        0.61702865860733       -0.15888877129269
H           -5.37482833507741        0.95023505360446        0.89015472709780
C           -5.78455214712108        1.77854725808426       -1.08152768365576
C           -6.30253238509300       -0.59087052450593       -0.21663411659637
H           -5.00822312890211        2.53777119467290       -0.95798408152180
H           -5.72016115292629        1.41371192639378       -2.10781566030630
C           -7.15189801787696        2.43140765818268       -0.86638621818858
O           -5.73262718228818       -1.81063578055022       -0.26825296500363
H           -7.92081885214317        1.74875197891449       -1.23196948183445
C           -7.42243610284373        2.74639951090534        0.60189499316732
C           -7.22604081097577        3.71154308719812       -1.69871886870443
H           -6.63467409835295        3.37855815132136        1.00726986189474
H           -8.36793938290985        3.27429975079289        0.70250410411918
H           -7.47639049626423        1.83417555167536        1.18984865974150
H           -7.02103834173969        3.50176848890005       -2.74571314258169
H           -8.21752938940403        4.15148923759209       -1.62607200878174
H           -6.50008619309253        4.44147217368064       -1.34596012259069
N           -7.55253147460178       -0.43526291897166       -0.26471657965956
H           -9.13054622066863        0.58086576678873       -0.14167781717083
C           -8.43401722246673       -1.58226770094566       -0.33179258016482
H           -8.11796873579334       -2.28963046546366       -1.10832232664908
C           -8.51709737154729       -2.32391478857513        1.00896598244594
C           -9.84149122912503       -1.07013889301204       -0.65719144502413
H           -8.80897047836323       -1.63405551045567        1.79886499300703
H           -9.25735078383717       -3.11594976241632        0.93690452856016
H           -7.55023155785278       -2.75521443531973        1.25444641895378
O          -10.00625558077262        0.22400165734199       -0.40805757521596
O          -10.72032621766810       -1.77999333915289       -1.06053334417191
