42
 energy: -62.486133500871 gnorm: 0.000483131156 xtb: 6.7.1 (edcfbbe)
N           -1.98682772606288       -0.86551985040901        1.55136821322343
H           -1.05863215773620       -1.26517692104399        1.48127390163826
H           -2.50202498794521       -1.41485111742878        2.23485879655640
H           -2.89430211364714        0.81282484675098        1.76825336515273
C           -2.67721829051657       -0.92168484687439        0.26253204669356
H           -1.98491930409103       -0.53238676260242       -0.49558723121131
C           -3.14803693975069       -2.31497512163209       -0.14859713350423
C           -3.84124370876006        0.05434150094878        0.34021929544155
H           -3.77390277595842       -2.74570362427394        0.63018557663154
H           -3.73598592647911       -2.24008055512577       -1.05670195655046
H           -2.29550880478054       -2.96909082535623       -0.32022332283967
O           -3.71013788909368        1.01942422947581        1.26856132473322
N           -4.82431456530199       -0.08630641497178       -0.43006677489812
H           -8.04737078004994        1.11985068831086       -1.68864703609530
C           -5.95091260790832        0.82054159071195       -0.36500286168822
H           -5.98006199042577        1.33861414819074        0.60601006507450
C           -5.84975881509939        1.86296617163767       -1.48920718671710
C           -7.18357397874699       -0.06281685242572       -0.44810232490752
H           -4.79432022382752        2.11667133098504       -1.60699269504354
H           -6.16313109528577        1.40819986888174       -2.43389165915444
C           -6.63580069534299        3.15355996655116       -1.20300080272930
O           -8.22931080403620        0.29787567652851       -1.21539141201530
H           -7.57723022457541        2.91067041324816       -0.69359336748816
C           -5.83217830860116        4.07029930796503       -0.28237288570678
C           -6.96292080389516        3.87849677575058       -2.50810616487053
H           -4.93496440253345        4.41858532356362       -0.78962542649621
H           -6.42283417092702        4.93716318809262        0.00465294184522
H           -5.52998984183500        3.54634950183062        0.62098340366433
H           -7.59038668609045        3.26899208870290       -3.15655759132527
H           -7.48942623666764        4.80774264344124       -2.30367184839355
H           -6.04747771593424        4.11610525023601       -3.04548982828494
N           -7.16308606353134       -1.10447370879930        0.25556431854009
H           -6.16002088844318       -2.13448476319949        1.23265358808626
C           -8.20011712076371       -2.10149336251520        0.31759064291659
H           -9.13713567198921       -1.67961746359023        0.70222630879273
C           -8.47425263578308       -2.78051482036084       -1.02823846286422
C           -7.69642745787508       -3.16844481762369        1.30924903181876
H           -7.54085973297634       -3.14655028891071       -1.45153108218950
H           -9.14884399310006       -3.61802592960237       -0.87377584371642
H           -8.92472664076234       -2.07416161839939       -1.72011689357424
O           -6.43661631574844       -2.97753227126947        1.68099866665235
O           -8.36940015215008       -4.08740839844841        1.68624538633554
