42
 energy: -62.486133509517 gnorm: 0.000480093760 xtb: 6.7.1 (edcfbbe)
N           -0.87984087662934       -0.35496678071364        0.48011485207472
H            0.05168164261834       -0.51724753197626        0.11795570245529
H           -0.99600295021612       -0.94302693787150        1.30095767163795
H           -2.05097507854164        1.08481815026834        0.96653281987064
C           -1.89737361117507       -0.68689125714167       -0.51582729528097
H           -1.57763372739572       -0.24612216870553       -1.46918942490339
C           -2.13193654592495       -2.18468640466592       -0.70484998456037
C           -3.17419761978330        0.03427140999090       -0.10582251766618
H           -2.46528179976113       -2.63160256817660        0.22954151464513
H           -2.89931818143875       -2.34810957526298       -1.45361689356482
H           -1.21335094423796       -2.67351698351125       -1.02370555694102
O           -3.00214989809328        1.06280941935132        0.73480894163651
N           -4.28340014653137       -0.34815223969986       -0.56233822969556
H           -5.41640495159985       -1.18399264538307       -1.93518454824651
C           -5.51387939438603        0.33543833427743       -0.21789801603464
H           -5.57917942697757        0.51682597928880        0.85932876905675
C           -5.62219289719899        1.67617803315980       -0.96914252187682
C           -6.62955157790120       -0.58605507450645       -0.65390024566158
H           -4.78463944536916        2.30138933901010       -0.65392857185594
H           -5.51002871567951        1.47618056472714       -2.03886437947214
C           -6.93603735042915        2.42660102762236       -0.73224006904746
O           -6.36634590722672       -1.30786074715361       -1.75169524551771
H           -7.76919045340378        1.77288882521539       -1.00932496098840
C           -7.10216761883227        2.83261152315629        0.72955714230006
C           -6.97579018707892        3.66555310347568       -1.62582394844145
H           -6.26528251159058        3.45088732958615        1.04813472493765
H           -8.01959676974206        3.40180091305640        0.85634324264344
H           -7.15592156762236        1.96041931482219        1.37473707835833
H           -6.88431951456877        3.39091753705466       -2.67436152234418
H           -7.91484078740070        4.19672344705367       -1.49312424797528
H           -6.16060853821141        4.34121016399129       -1.37449622920708
N           -7.69412347388869       -0.65283433735270        0.01733035407579
H           -8.89105891012476        0.24752825656984        1.04623633880280
C           -8.78963517750935       -1.50701708140339       -0.38709047000643
H           -8.88024238090466       -1.57880513485763       -1.47841628961950
C           -8.62899772001650       -2.91666800346446        0.19172179410599
C          -10.08047775072368       -0.89390847483264        0.17515117625825
H           -8.49330577412382       -2.86049937145190        1.26985455596798
H           -9.51966583255025       -3.49897903730143       -0.02665601291611
H           -7.76120786855740       -3.40045695744166       -0.24989580574413
O           -9.86755937656180        0.11303079569533        1.01419944457535
O          -11.17415964273791       -1.29871000915940       -0.10617814260499
