42
 energy: -62.486130723116 gnorm: 0.000547223173 xtb: 6.7.1 (edcfbbe)
N           -2.12297000053529       -2.40706653673910       -0.91541097695342
H           -1.17011590883615       -2.73827685862208       -1.00496636936120
H           -2.57573495226558       -2.53179219516187       -1.81721517853905
H           -3.68889636868472       -2.56811827104581        0.18132073563398
C           -2.15401246050353       -0.99565695188498       -0.53794082579254
H           -1.47103025512248       -0.87100518661002        0.31240456018791
C           -1.75693273778749       -0.02778393720663       -1.65009408489664
C           -3.55965568527782       -0.70203818949358       -0.02681281864751
H           -2.40772888846000       -0.16339498553386       -2.51126263050916
H           -1.86726030270490        0.99126338080924       -1.29639240710833
H           -0.72575412874451       -0.19793420680443       -1.95310522686396
O           -4.23812838712176       -1.78526183879768        0.39209099849391
N           -3.96195646157472        0.48624013489378        0.00123158267306
H           -5.43289806222753       -0.18085978087761        2.58823640076003
C           -5.28000698029466        0.91716363758964        0.41166987039948
H           -5.11928778504109        1.58154292964216        1.27358229900341
C           -5.85177810374480        1.74180314796023       -0.75106712441511
C           -6.20845240064036       -0.20229795888819        0.82856442676076
H           -5.09810817827950        2.48237112057240       -1.02282690973346
H           -5.98375039126579        1.06832230077253       -1.59833648178009
C           -7.18089586734877        2.43887275234646       -0.44821336433757
O           -6.17162426017927       -0.59091236122911        2.12292523048379
H           -7.89233108318435        1.68882407212345       -0.08979180627693
C           -7.02846148249283        3.52212433081199        0.61737879701489
C           -7.73070227329202        3.05087715833625       -1.73560194716275
H           -6.27144788310189        4.24465364457073        0.31923280193431
H           -7.97011225438957        4.04946242643557        0.75269484758708
H           -6.74413092545587        3.09897128075631        1.57759846111958
H           -7.87539121581790        2.28552431153457       -2.49396434345445
H           -8.68722580491901        3.53383488761026       -1.55051635848333
H           -7.04043034479612        3.79596232841786       -2.12550604857926
N           -6.98153293323899       -0.72104637986228       -0.01856873882838
H           -7.24431022328329       -1.11215293147572       -1.73626130264645
C           -7.84730487037326       -1.82856668368481        0.30632744915590
H           -7.38156702563014       -2.51929727359894        1.02041359796466
C           -9.18318856580493       -1.34252893590910        0.87809585180091
C           -8.11969515660293       -2.57827299353320       -1.00627667131657
H           -9.63983158942609       -0.62558789451507        0.19825989114391
H           -9.85099761736114       -2.19040930049010        1.00130483609063
H           -9.02202541566347       -0.86548419349319        1.84182887616572
O           -7.68326159146308       -1.92901376079768       -2.07987552872468
O           -8.68526440932635       -3.63507985682159       -1.05621928252626
