42
 energy: -62.486132284568 gnorm: 0.000629381628 xtb: 6.7.1 (edcfbbe)
N           -1.05338360368858       -0.47470299364068       -1.13777018158868
H           -0.42045185150513       -1.04430592186436       -1.68607293810990
H           -0.63923892501982       -0.35648362469121       -0.21711885879432
H           -2.08342663953877        1.13148980767234       -1.30207523912928
C           -2.36061587209427       -1.11998465399099       -1.01311735980559
H           -2.65769480186854       -1.45011350343774       -2.01644102624073
C           -2.39706629044892       -2.31338419548262       -0.06327635964630
C           -3.36796254632908       -0.04660483550125       -0.60833229199577
H           -2.07146368984519       -2.01212952875863        0.93049437389479
H           -3.41587860569945       -2.67779261551504        0.00474835720410
H           -1.74765055999645       -3.10891351353927       -0.42341310948678
O           -2.98330343659274        1.20570897220704       -0.92304524170927
N           -4.42946927737643       -0.41325171892486       -0.05524884717939
H           -7.49613541267696        0.20167691101391        1.81425487964141
C           -5.53908757600554        0.40049689783945        0.36104503777733
H           -5.42804470618550        0.54716747669760        1.44645986441948
C           -5.69414391744143        1.76562751547788       -0.34006889247805
C           -6.78491568302398       -0.42078946239122        0.10469770728345
H           -4.78474585597757        2.34417407062394       -0.17930755673378
H           -5.78053927720643        1.56180392932940       -1.40893353297592
C           -6.89852181020422        2.59707224925625        0.11639145491596
O           -7.77469374044193       -0.35012243429988        1.07378544687071
H           -7.81005615728915        1.99303277638228        0.05079903328053
C           -6.73093329503065        3.10340290496797        1.54926872468750
C           -7.06910679428107        3.78788803302706       -0.82587908063418
H           -5.85394345423009        3.74381614091610        1.61767839427701
H           -7.60114522908853        3.68360836384633        1.84848914109846
H           -6.60853729415357        2.29165784451017        2.26453823669993
H           -7.24702921468970        3.44679429013300       -1.84248385459127
H           -7.91355408959180        4.40012520097153       -0.51767795871107
H           -6.17424701054651        4.40652822688174       -0.82135315330209
N           -6.87292183450471       -1.09345698403870       -0.94216218427091
H           -9.18007015813559       -0.31122744763758       -0.05760118750553
C           -7.96367948893032       -1.93807593474335       -1.35315741159112
H           -7.60188866691317       -2.46387292933535       -2.24436907019336
C           -8.39465788511546       -2.97065917861991       -0.30239663754042
C           -9.19729556054740       -1.13446304763396       -1.79264003600511
H           -8.81765554376619       -2.49234432958609        0.57826420894580
H           -9.13684488404142       -3.63824706976782       -0.73304372317970
H           -7.52807115806068       -3.55245642135591        0.00305183621242
O           -9.69508663206215       -0.29256014137354       -0.88684428067154
O           -9.70103281604447       -1.26815521445464       -2.87120160626493
