42
 energy: -62.486133513515 gnorm: 0.000479720448 xtb: 6.7.1 (edcfbbe)
N           -2.14149861397435       -1.14283859340283       -2.21930183116877
H           -1.49438879966899       -1.87004440247162       -2.49677669050994
H           -1.67211208918613       -0.24931817855584       -2.33606782850020
H           -3.96061736230172       -0.66120616090948       -2.52746288145744
C           -2.55999196256730       -1.30865741225805       -0.82919435685021
H           -2.81155948332201       -2.36771478837414       -0.68842042266514
C           -1.51586121495158       -0.89742736419356        0.20589164142743
C           -3.86254483189268       -0.53464302401876       -0.65680928310216
H           -1.23296868622683        0.14290113319806        0.05893565097135
H           -1.93591317954710       -0.99990528308326        1.20032242539940
H           -0.62875143500816       -1.52188249224896        0.12094909740465
O           -4.52148203139401       -0.30770553857359       -1.80378359217590
N           -4.23003800023706       -0.21640577764131        0.50293356483093
H           -6.45669200583452       -0.88632570404469        2.57738643339859
C           -5.47571849472411        0.46852342543129        0.79576064262395
H           -5.37817419091170        0.77744939779576        1.84648322621604
C           -5.76524489442141        1.69888063729045       -0.07081889199012
C           -6.57889065501076       -0.56144723647711        0.68562303777688
H           -4.88514387736041        2.34548501126174       -0.05444971956416
H           -5.92690264874714        1.35930711657608       -1.09222830953844
C           -6.99638763403582        2.48372929278948        0.39518429992161
O           -6.98085208408528       -1.17670795871376        1.82099754370250
H           -7.81234942563519        1.77346013046336        0.56923296667955
C           -6.73042269996311        3.25736494346876        1.68506649525966
C           -7.42824398511444        3.45015911759352       -0.70623787721685
H           -5.91219754725075        3.96014704737032        1.54149401845744
H           -7.61542046109567        3.81884995140763        1.97615828097920
H           -6.47109401092886        2.59327976864862        2.50589491416812
H           -7.67166302721560        2.90847565230957       -1.61675675318784
H           -8.30504985001087        4.01493597900687       -0.39781256603891
H           -6.62786273816862        4.15323814492377       -0.92717972325023
N           -7.02809278852615       -0.85224361524184       -0.45143520638976
H           -6.48603169179114       -1.07617437190970       -2.19978587136629
C           -8.01691757649384       -1.87595998371442       -0.66921156411277
H           -7.91577662953075       -2.71377119062858        0.03463205129193
C           -9.43339397879147       -1.30325208103346       -0.55811975792797
C           -7.80786353720613       -2.41210024862279       -2.09486842131418
H           -9.52532681533549       -0.42118827597613       -1.18923078630991
H          -10.14892958974559       -2.05298588128767       -0.88433797355596
H           -9.64279618333131       -1.02591993938729        0.47269335830186
O           -6.87437352476792       -1.77246346926261       -2.78521828784594
O           -8.44065100249920       -3.32992357081256       -2.54119577834154
