42
 energy: -62.486133520227 gnorm: 0.000479018207 xtb: 6.7.1 (edcfbbe)
N           -1.23551148720010       -1.27362428024136        1.02808202925932
H           -0.23715795647284       -1.37563284379458        0.89422176478527
H           -1.61215708389932       -2.19282328600238        1.24251306898582
H           -2.48075051198481       -0.16032076009786        1.98075061283069
C           -1.87706489003790       -0.73844786017729       -0.17092890347440
H           -1.27102185996539        0.10952433186627       -0.51511267122205
C           -2.03073309026483       -1.74102409266153       -1.31403554430300
C           -3.22127363623132       -0.16631014472257        0.26044832914150
H           -2.65637748601619       -2.57542377673216       -1.00230399493882
H           -2.49448195708497       -1.25575174858968       -2.16645446352343
H           -1.05685537487118       -2.12411783925926       -1.61253864138432
O           -3.31661187291669        0.13099872282783        1.56247454138885
N           -4.11928999617553        0.02770222591366       -0.60081366174869
H           -5.09585322840239       -1.24415054642856       -1.66248677523224
C           -5.42025639945956        0.54933737679002       -0.23112159526181
H           -5.48811208074569        0.78873384104314        0.83474497498288
C           -5.67367580036380        1.81215385033700       -1.07513444622162
C           -6.43124455852435       -0.52683502304589       -0.56402843743422
H           -4.87773710221704        2.52357165798704       -0.84289266790114
H           -5.57300166817159        1.53584848858461       -2.12761339709381
C           -7.03285705338017        2.48009451345376       -0.85318596509304
O           -6.02247515677471       -1.45876252465887       -1.43830297930660
H           -7.81953926268661        1.75245879669978       -1.07177398233093
C           -7.20176428056350        2.96377571514023        0.58466775208914
C           -7.18122575489746        3.65433059507574       -1.81977282224579
H           -6.41089885356343        3.66469838525534        0.84476222712767
H           -8.15829748766171        3.46757037423323        0.69862538752394
H           -7.17259075921163        2.13259529735973        1.28337611203757
H           -7.08654020621471        3.32184738248668       -2.85094427917653
H           -8.15601320739596        4.12001997703572       -1.69950889449715
H           -6.41645508859949        4.40453264732926       -1.62870542417947
N           -7.58691745182272       -0.47467845143976       -0.06394765627608
H           -8.90439346924663        0.49982106857405        0.73109092636364
C           -8.60133554907367       -1.44930809069898       -0.39999780799252
H           -8.60327046030451       -1.68397935874508       -1.47243699520641
C           -8.41886597894054       -2.75036639439768        0.38865925035703
C           -9.96065366046933       -0.83902602789527       -0.02754491640311
H           -8.36262001143824       -2.53324010872044        1.45350573085145
H           -9.26536198427135       -3.40506594110599        0.20202662476104
H           -7.50215132153017       -3.24541764160960        0.07788575019237
O           -9.86590452048519        0.29526995559732        0.65518726051085
O          -11.00689170992874       -1.35260419174031       -0.31250040127875
