42
 energy: -62.486133530390 gnorm: 0.000477101999 xtb: 6.7.1 (edcfbbe)
N           -0.81810783893803       -0.41176839918322        0.41654223753714
H            0.12107351057458       -0.48754367476216        0.04584728707218
H           -0.93815058439794       -1.15347882269671        1.10095918781286
H           -2.00979105892337        0.92993476720167        1.12786273841891
C           -1.81548028238148       -0.54458745244350       -0.64372808028927
H           -1.49416913320995        0.09511134711121       -1.47603150932968
C           -2.01729728193637       -1.96982372449489       -1.15661618029235
C           -3.10962454247496        0.05434490910812       -0.11205476821532
H           -2.36285172525314       -2.61571066058431       -0.35139133643752
H           -2.75774463773944       -1.97316307435001       -1.94967916847516
H           -1.08140685739361       -2.36518254140689       -1.54643501939428
O           -2.95944443921277        0.92994132732360        0.89028378499491
N           -4.20961488718320       -0.25822347893786       -0.63962990488428
H           -5.06881679756520       -1.87186272746764       -0.81614216680436
C           -5.45895254361103        0.30325984874258       -0.16002975220253
H           -5.39821936716255        0.55151780833291        0.90813735622731
C           -5.71577738489569        1.59270990044891       -0.96093785185292
C           -6.50820467124181       -0.77922902153509       -0.34203311151395
H           -4.87547761671567        2.25756896134440       -0.74300807083532
H           -5.67108455301263        1.33668297538871       -2.02209182318840
C           -7.02170911541912        2.33974415023128       -0.68259353587996
O           -6.02486310729524       -1.99507967972578       -0.63916894050055
H           -7.84773155271179        1.74891542724554       -1.08319146671163
C           -7.24912951046511        2.56709016222715        0.80888354751936
C           -6.99271680192485        3.67871158883045       -1.41918294651438
H           -6.40197635726306        3.09117803898437        1.24722699032269
H           -8.14113016616878        3.16962610336410        0.96288346662490
H           -7.38191204123356        1.62165775885176        1.32761414379719
H           -6.81934107074724        3.53045175104209       -2.48246437129772
H           -7.94071547715406        4.19623381193943       -1.29653357008516
H           -6.20127720781617        4.31443068167878       -1.02683756173917
N           -7.73981670314891       -0.51565706274424       -0.26962240385107
H           -9.17373513230934        0.61888303938723        0.04548765556216
C           -8.72984431505866       -1.55357985347316       -0.46570260256762
H           -8.52620247274636       -2.14022245221941       -1.37016830623028
C           -8.80900500847332       -2.50801499876887        0.73270569645738
C          -10.09492457473770       -0.86939616107508       -0.60637691078065
H           -8.97877329876563       -1.94291594940656        1.64751418327518
H           -9.63105245924831       -3.20291973503044        0.58596798869785
H           -7.87881655203979       -3.06262508018086        0.82443786199113
O          -10.10080440712476        0.39338483252807       -0.19465879549493
O          -11.07157123663288       -1.43242050038922       -1.01710895364351
