42
 energy: -62.486133496868 gnorm: 0.000483123546 xtb: 6.7.1 (edcfbbe)
N           -1.11344889983564       -1.09011878586514        0.10273600215815
H           -0.23496648058794       -1.26563675686102       -0.37033699423544
H           -1.36709599952694       -1.94162324921534        0.59719584145514
H           -1.98674189693756        0.22660111500813        1.22215151735015
C           -2.16357079363234       -0.75364933331784       -0.86041399556168
H           -1.75482669199401        0.01542673419526       -1.52870670263356
C           -2.67547716525877       -1.92630879545869       -1.69177704834919
C           -3.29594708723797       -0.10068967040423       -0.08338787125846
H           -3.01547281934854       -2.72609152621499       -1.03747226328950
H           -3.52158989442199       -1.59686370615274       -2.28438782620044
H           -1.89178561720747       -2.30689743187968       -2.34369031786491
O           -2.92837942458641        0.45528253720871        1.09277074543072
N           -4.45447232376394       -0.10051394535298       -0.56260432369224
H           -7.48516815209741        0.64320203893587        1.54813720854438
C           -5.54848800046965        0.54656430423735        0.10857315466885
H           -5.31956776863016        0.75946250380699        1.16653898025651
C           -5.81734230635322        1.86382933255167       -0.65408974864876
C           -6.75292968236739       -0.35875935922316        0.03796541004309
H           -4.88490079461740        2.43331072621837       -0.64661086050150
H           -6.02738623317495        1.58294907282068       -1.68746913076586
C           -6.94547538239697        2.75450176265811       -0.12394828857456
O           -7.74944168842370       -0.07930354906477        0.96543357249887
H           -7.87384222497671        2.17667103605492       -0.06119824289222
C           -6.61337201848783        3.33844850790558        1.24961595917238
C           -7.18688577520778        3.89201544005403       -1.11620508551811
H           -5.72696725864616        3.96564393967411        1.18191273624740
H           -7.43738412006520        3.95067900197152        1.60990944111787
H           -6.41668407420629        2.56739276976813        1.99272551293093
H           -7.47246081552283        3.49708162325038       -2.08784253247581
H           -7.98405416757623        4.54186132794478       -0.76279328035036
H           -6.28536871939493        4.48855572672323       -1.23796225627027
N           -6.80172502201064       -1.29373489047901       -0.78455382915224
H           -9.12868861949160       -0.37367905546322       -0.16383076319512
C           -7.85525700348477       -2.25649431672792       -0.96261407834282
H           -7.46267318115661       -2.98444029603595       -1.68200058352148
C           -8.26779429511271       -2.99257430238460        0.32049464308903
C           -9.11440029533969       -1.64831665261773       -1.60004211429929
H           -8.71788964241956       -2.31485531257424        1.04270915872354
H           -8.98313791372961       -3.77377661552789        0.07542448603235
H           -7.38906060489043       -3.44668939860610        0.77287062350369
O           -9.64063102889325       -0.60268025711491       -0.96251998493570
O           -9.61343936953926       -2.09780830550876       -2.59177179688800
