42
 energy: -62.486132336150 gnorm: 0.000614190834 xtb: 6.7.1 (edcfbbe)
N           -1.11965849954247       -1.07824800938067        0.44398244126610
H           -0.19894163682235       -1.24949120885759        0.05891900292009
H           -1.39189217861662       -1.90842417334098        0.96362635606939
H           -2.07232305618528        0.26302927210653        1.41676681439748
C           -2.09188083575310       -0.81760817502801       -0.61828462063868
H           -1.62495633883276       -0.12374245854726       -1.32824272847516
C           -2.56871478600353       -2.05912599392257       -1.36802873742555
C           -3.26309410647166       -0.07293647037348        0.00648423949677
H           -2.98093480494413       -2.78349776885888       -0.66773973809842
H           -3.35014002759742       -1.77471384428936       -2.06440282683348
H           -1.74505923882168       -2.51978574258240       -1.90961276914268
O           -2.99979804159038        0.49364050834427        1.20567186145425
N           -4.35826234903449       -0.01741467949999       -0.60420673738524
H           -6.04535614643998       -0.26731638924325        2.03428108678503
C           -5.47343627766412        0.74019290496301       -0.07888749740759
H           -5.21393929094373        1.24170888926138        0.86677963688570
C           -5.88541440641949        1.77373003671498       -1.13323748492991
C           -6.58510187562305       -0.25318729489314        0.16261672386526
H           -5.02657607585777        2.41771522913705       -1.33275802879626
H           -6.11989588186418        1.21605610454459       -2.03890412522061
C           -7.09137176754989        2.62807656135062       -0.73171798394147
O           -6.73263312451297       -0.65781565994122        1.47954119092739
H           -7.91707849999088        1.96043279067031       -0.46486415740110
C           -6.78325589006940        3.53477770265445        0.45869271536960
C           -7.52840341954357        3.47228376981998       -1.92711268755680
H           -5.91956170272842        4.16148718395412        0.24494730652640
H           -7.63258212930153        4.18163825801897        0.66607084272993
H           -6.57725091937248        2.95999477461341        1.35837515316827
H           -7.78229165941724        2.83454355382533       -2.76953851741740
H           -8.40144314724884        4.06873271057797       -1.67342475101855
H           -6.72841115856503        4.14475370924527       -2.23017605052417
N           -7.25890038407931       -0.68936415308591       -0.79243738653548
H           -8.55359773852379       -0.69466186562428        1.43996407150352
C           -8.29955422704174       -1.68219519844624       -0.74837951069968
H           -8.53386892408968       -1.90270389782688       -1.79619001140597
C           -7.90739431614761       -2.98446121881698       -0.03700944876591
C           -9.59226458782961       -1.14381897548108       -0.11526463681724
H           -7.72552715428374       -2.82150889055025        1.02305608677662
H           -8.70516312485943       -3.71421580066421       -0.15062745333341
H           -6.99917308476709       -3.37769398953162       -0.48828248232143
O           -9.47173894371110       -0.64424596845444        1.11490198845581
O          -10.64934949457437       -1.18664189868449       -0.67641205989840
