42
 energy: -62.486133479600 gnorm: 0.000484729961 xtb: 6.7.1 (edcfbbe)
N           -1.08100483871785       -0.56681402141972        0.26258374824329
H           -0.28465831483741       -1.11770475967059       -0.03461898896844
H           -1.13087692972858       -0.62576011104173        1.27632505593661
H           -1.88009441514670        1.15556314900039       -0.01413328711703
C           -2.31942952077546       -1.08166297701223       -0.32098280374625
H           -2.13488554356390       -1.22795078092158       -1.39370992163688
C           -2.81964168666096       -2.38964415520723        0.28661781929160
C           -3.36459184854587        0.02304481293561       -0.20596609932298
H           -2.97024565187942       -2.26989692464535        1.35753080044368
H           -3.77134295264840       -2.65355750068044       -0.16163339977848
H           -2.10191791172101       -3.18942891497724        0.11494517898336
O           -2.85105078554605        1.26165169825491       -0.08452181658915
N           -4.57855331160571       -0.29076458850011       -0.23341624029475
H           -6.42142324681524        0.19469974588707       -2.45655297829454
C           -5.68862512149449        0.63626044653318       -0.17049754138141
H           -5.85815156631308        0.87206476771131        0.88639481327854
C           -5.52309451990060        1.93915633198638       -0.96673512745531
C           -6.87036756805280       -0.19123012038105       -0.63852853089382
H           -4.73462349826793        2.52709574173855       -0.49622785712888
H           -5.17700889800883        1.70662761477039       -1.98082528766406
C           -6.80145121545380        2.78475526142522       -1.03822142911763
O           -7.07630480460327       -0.31517807259479       -1.96380435779140
H           -7.60849556970386        2.19441353696895       -1.48706945155889
C           -7.25501278695869        3.23044428594944        0.34998139418371
C           -6.54959782598913        4.00369661971499       -1.92510201305121
H           -6.44810570495030        3.74761941933078        0.86521328662073
H           -8.09959304717182        3.91064619504331        0.26617977966393
H           -7.56701318457078        2.38004655952608        0.95094417999500
H           -6.24632087033347        3.70287776577564       -2.92605650197153
H           -7.45130882799325        4.60529392682448       -2.00958421598826
H           -5.76241076162947        4.62296004876477       -1.50041247833826
N           -7.55099849009124       -0.80960729446823        0.22094044165548
H           -8.05294318522168       -1.06639142597702        1.94066988540284
C           -8.63233118416513       -1.69500004696303       -0.15105633445532
H           -9.27038841294443       -1.25859461935430       -0.92958283359370
C           -8.10823059997936       -3.04947598957409       -0.64150053349902
C           -9.47567763792306       -1.93398767870360        1.10972046289913
H           -7.43959185141967       -3.47795326678762        0.10231050309136
H           -8.94623368598096       -3.72244137629632       -0.80022062762184
H           -7.56417683374265       -2.91985540502512       -1.57336606913078
O           -8.89673032995599       -1.49396384698637        2.22069674440646
O          -10.54168631196872       -2.48407988270282        1.09220771527548
