42
 energy: -62.486133518830 gnorm: 0.000479210249 xtb: 6.7.1 (edcfbbe)
N           -0.79529697256291       -0.21500484372771        0.31041807216946
H            0.12202978695820       -0.37655211251618       -0.08679364422013
H           -0.85915507906594       -0.76012813794336        1.16581226495225
H           -1.97781361400868        1.24414914649150        0.74326486932285
C           -1.84942767781575       -0.62151902967750       -0.61729216285857
H           -1.59544440491630       -0.20304974732608       -1.60031502139412
C           -2.03334764616607       -2.13289006362364       -0.74530690652502
C           -3.12694166013668        0.07214281262565       -0.16448733873922
H           -2.34911306081714       -2.55492286140082        0.20635572456389
H           -2.79173440768346       -2.35570519529472       -1.48811000543957
H           -1.09770537414153       -2.60000615447945       -1.04701639282854
O           -2.94007527298138        1.17087181820305        0.57823361112437
N           -4.24667802680887       -0.39818454707401       -0.49460602460499
H           -5.24652480956976       -1.59255914644231       -1.47243744919683
C           -5.49351072280006        0.24381025575622       -0.13107577605262
H           -5.53838551732505        0.43798199715164        0.94492947379765
C           -5.64743671908978        1.57672473822387       -0.89345668627468
C           -6.58926553868100       -0.72520975720605       -0.52914084721378
H           -4.80956691643307        2.21386761997663       -0.60404577927121
H           -5.55500920861469        1.36248792210980       -1.96206074153886
C           -6.95605412092404        2.32984184010006       -0.64430936882996
O           -6.21717978960310       -1.69297738028315       -1.37311909608434
H           -7.79099757254561        1.69406964661941       -0.95101694549680
C           -7.13170049063023        2.69407287442376        0.82726286844443
C           -6.97525663290992        3.59513413624390       -1.50125161588539
H           -6.28932554104404        3.28987977744878        1.17334734089829
H           -8.04166649630887        3.27340946900700        0.96181143374604
H           -7.20422118197069        1.80269672163710        1.44401203934835
H           -6.86541974447512        3.35115391820865       -2.55550851263541
H           -7.91565395903921        4.12421508552984       -1.36988002325788
H           -6.16349555005498        4.26139274196052       -1.21580621310692
N           -7.75880454072601       -0.57183160781709       -0.08105526663792
H           -9.03009324899186        0.48823889251335        0.68138505238106
C           -8.83326338557120       -1.45880145714800       -0.47242366988458
H           -8.80827560708211       -1.68179627538754       -1.54687413324205
C           -8.78789212436769       -2.77869620811036        0.30530261514430
C          -10.15485827390775       -0.74907007787339       -0.14652668146452
H           -8.76699054569106       -2.57818410443335        1.37472044224477
H           -9.67140196809724       -3.36503262077138        0.06948856191498
H           -7.89704486919786       -3.33814270682046        0.03115361754493
O          -10.00078968449883        0.36251779596101        0.56302486378118
O          -11.22540308378894       -1.17042104319741       -0.48767153426450
