42
 energy: -62.486130505132 gnorm: 0.000758939787 xtb: 6.7.1 (edcfbbe)
N           -2.49494297522192       -1.15495878034859        1.95310340142021
H           -1.67096550525808       -0.64210655999199        2.23591503480493
H           -2.31890931992431       -2.14453538625147        2.07245419923272
H           -4.16431744755584       -0.59503914210011        2.44914184224073
C           -2.90113573039345       -0.84756121901199        0.57966150586014
H           -2.18161322630408       -0.19545192939385        0.07368540911182
C           -3.09649396670889       -2.11577911229718       -0.25086121710046
C           -4.23664619488002       -0.11416934692836        0.65241983980700
H           -3.79109718500345       -2.78710496410276        0.24937150670767
H           -3.50527087533530       -1.84956898027775       -1.22032746426919
H           -2.14636466079931       -2.62788032402119       -0.39173389375631
O           -4.82301267884806       -0.15078659103554        1.85995270165265
N           -4.68185174405006        0.46015937588595       -0.37346066815070
H           -8.36603973383481        1.38634458495900       -0.69206580378422
C           -5.99140534834050        1.06223302505229       -0.38187707342836
H           -6.08700429984843        1.76291451782114        0.46592426455848
C           -6.16999897554372        1.81957798641977       -1.71383957249784
C           -7.09221855155198        0.04057825900854       -0.17408542004102
H           -5.21557812438787        1.75803451504008       -2.23752465035700
H           -6.90794146929633        1.30843879993075       -2.33799661667959
C           -6.55902351481923        3.29484804063249       -1.55171219955647
O           -8.35587147477120        0.46204088621052       -0.41331336227444
H           -7.38727158128401        3.38088781543479       -0.83409428934303
C           -5.38056494330934        4.10641950001626       -1.01969144211104
C           -7.02755051093625        3.86340228129555       -2.88986801640810
H           -4.56544444424401        4.09530863169110       -1.73920804482844
H           -5.67444110067764        5.13914611781600       -0.84605213206137
H           -5.01131097503842        3.69245331033307       -0.08488599277879
H           -7.89997081573614        3.32774231299779       -3.25903314751124
H           -7.29057762095382        4.91348550827353       -2.78636244090670
H           -6.23611516735034        3.77959627672389       -3.63084422886686
N           -6.82428752973531       -1.11782651578251        0.22862297773660
H           -5.78710090713334       -1.98895142062936        1.43628289135352
C           -7.83314866773657       -2.12596195551748        0.44840075164844
H           -8.70166897999506       -1.71781179632479        0.98507024076174
C           -8.31325207116094       -2.75171203989809       -0.86266170851734
C           -7.19962651459842       -3.20876946449250        1.33649550925036
H           -7.45656621025381       -3.06727214047911       -1.45443821329128
H           -8.92953085130504       -3.61753346238427       -0.63749039522889
H           -8.89264478195757       -2.02990304504836       -1.43236115281270
O           -5.99267285307571       -2.88961399466426        1.78934627574726
O           -7.74474172538674       -4.24533921989190        1.59887555975400
