42
 energy: -62.486133512393 gnorm: 0.000479925091 xtb: 6.7.1 (edcfbbe)
N           -2.16010053634038       -2.42721241281741       -0.91001192836149
H           -1.19123125528136       -2.69032545623508       -1.04581670697608
H           -2.63138863619727       -2.51754203231271       -1.80617029312319
H           -3.67506719150372       -2.71342478116717        0.25139721250560
C           -2.26362401394296       -1.04611447243028       -0.44151475691541
H           -1.61021480890552       -0.95489429983770        0.43657730762548
C           -1.87076310991354        0.00725962872182       -1.47358921589980
C           -3.69972344341736       -0.85139259019871        0.04618562643246
H           -2.49732913588153       -0.08592926746475       -2.35767275007723
H           -2.01968725377473        0.99522109653843       -1.05293045205297
H           -0.82758020854060       -0.11108272264622       -1.76111141033511
O           -4.26683972744105       -1.97630594680465        0.50385206945807
N           -4.15205250259497        0.31776446534060        0.08356019357837
H           -7.53897343272015        0.98547879136398        1.61864607700693
C           -5.47895667542482        0.77842678634253        0.37279056549613
H           -5.43182508654504        1.25210128590385        1.36536925805446
C           -5.76148428344146        1.86284761921933       -0.69730996136644
C           -6.61786796031499       -0.21330661459384        0.37323361182602
H           -4.86702213823481        2.48450925084312       -0.75459269567746
H           -5.86453567578317        1.34188811183454       -1.65092953423329
C           -6.98627186606854        2.75486903531021       -0.47197636272971
O           -7.70678263161755        0.15523627160510        1.15741828664422
H           -7.87911719600995        2.13282249022254       -0.34556051610228
C           -6.81963303450853        3.65771818168823        0.75032585501428
C           -7.20779328163517        3.61755205108438       -1.71434798141859
H           -5.96134653785276        4.31212561514613        0.61473312371485
H           -7.70361958054798        4.27733729411782        0.88495551716783
H           -6.66494457341598        3.09207506418312        1.66765345267504
H           -7.38209019175596        2.99324178802427       -2.58700543922233
H           -8.07125663107969        4.26472912048597       -1.57932035801138
H           -6.33672667458246        4.24063230439684       -1.90447376654656
N           -6.55275365341260       -1.28020437401652       -0.26778334399156
H           -8.98019835516715       -0.43710437813801        0.03232410291408
C           -7.53670734144149       -2.32701249138360       -0.33829435834174
H           -7.04876304369463       -3.14446012184398       -0.88169547263833
C           -8.00229012303568       -2.84471112668114        1.02919785976002
C           -8.76554397185468       -1.92225151523141       -1.16492838302069
H           -8.55725523534607       -2.08591575173797        1.57662550340532
H           -8.63726853399666       -3.71623703002081        0.89060135203383
H           -7.13040484286565       -3.12655432820067        1.61492103816060
O           -9.40788425227575       -0.82917698273848       -0.75337287618021
O           -9.14127266350533       -2.55470348081279       -2.11102459339829
