42
 energy: -62.486133511115 gnorm: 0.000479602791 xtb: 6.7.1 (edcfbbe)
N           -2.04338849089972       -0.25799390767230        0.88046135878771
H           -1.32132417942469       -0.76597098757180        1.38187064806231
H           -2.58992552396646        0.25979563735210        1.56098456766246
H           -3.57020812852067       -0.79513188605641       -2.14274301043969
C           -2.92223052287847       -1.19474683834521        0.19461913202189
H           -2.35151511142390       -1.61281907145715       -0.64839343558678
C           -3.42700677501743       -2.34378480831842        1.07915157036349
C           -4.10484106433180       -0.41030222338533       -0.33088293436799
H           -4.00223841756520       -1.93534855917894        1.90537124675006
H           -4.06393565649885       -3.01717826836413        0.51240649877935
H           -2.58439155740104       -2.90970772955445        1.47137656598825
O           -4.28379384019145       -0.34716864129107       -1.67133000303054
N           -4.87568376507790        0.12451917485261        0.50503023282702
H           -7.84977067690962        1.33856783547993       -1.51229971404699
C           -6.02210055311603        0.90495794028398        0.09658897282207
H           -6.40224177954710        1.34635090891954        1.02968298290573
C           -5.69315467391574        2.03720787288172       -0.89364818547898
C           -7.10149296393280       -0.03995443628509       -0.40174438451298
H           -4.63937384390739        2.29241729898462       -0.76370953335293
H           -5.80043081415408        1.67197490718675       -1.91880687661526
C           -6.53217355806605        3.30755771905842       -0.67592528986934
O           -8.02736026061090        0.42204123669154       -1.26533494235032
H           -7.56485120125795        3.03652007099122       -0.41859758099025
C           -5.96778733723245        4.12999536020937        0.48079716780290
C           -6.55769198293306        4.14768029667976       -1.95217006683971
H           -4.97129075560313        4.49000139358364        0.23479470759268
H           -6.60299252154556        4.98925494997638        0.68346444601262
H           -5.90031856319511        3.53306698507994        1.38690930301098
H           -7.01221111358979        3.60205139496742       -2.77744697653652
H           -7.12686052599556        5.06092561423846       -1.79476012171881
H           -5.54561169465281        4.42156748195620       -2.24121944438348
N           -7.10584436117736       -1.21646914569356        0.04269325251739
H           -6.47784150894765       -2.37133041000594        1.25087502754700
C           -8.07758379529979       -2.20901637226358       -0.34539520205098
H           -9.10401641477805       -1.83194193116072       -0.24942147392952
C           -7.86463833113312       -2.70155673977099       -1.78064805819670
C           -7.89888159166929       -3.39769592076631        0.61487706003675
H           -6.83223462896338       -3.02035539732210       -1.91191987013698
H           -8.52436636427977       -3.54358442918632       -1.97048804452897
H           -8.08122638925719       -1.90350383180724       -2.48592668975093
O           -6.87092445234420       -3.25916279630652        1.44161513123304
O           -8.61043561098701       -4.36375586644614        0.59817790396271
