42
 energy: -62.486133525139 gnorm: 0.000478405536 xtb: 6.7.1 (edcfbbe)
N           -2.33252790506039       -0.93081014688517       -0.39911562750382
H           -2.14138691606973       -0.06582852243238       -0.89335877722388
H           -2.05017669647145       -1.70210239916833       -0.99354566488246
H           -2.29910910302198       -0.52784630668812        1.61773047496082
C           -3.74873784128826       -1.03691336525934       -0.04965817366043
H           -4.42475853526608       -0.87090954392605       -0.90289335990105
C           -3.99801806379747       -2.42316986625235        0.54527846374446
C           -3.99598654277934        0.01344810694472        1.03596985191464
H           -3.34281523680259       -2.58872518348246        1.39770801303328
H           -5.02707236013419       -2.50777617988269        0.87816341014557
H           -3.79590008610465       -3.19340745319579       -0.19740568821122
O           -3.02615325355355        0.02634565102061        1.95720574074932
N           -4.92578236375682        0.84868980307336        1.17564371363776
H           -6.99735841691733        0.92435428064344       -1.98113659372338
C           -6.01458149722926        1.12844382246375        0.28451442609451
H           -6.76944031930509        1.60331130555863        0.93055556483171
C           -5.54147919925531        2.17875045629101       -0.74495198799899
C           -6.73103246844172       -0.05802985564526       -0.34309189559718
H           -4.70756851362234        2.71423431644295       -0.28685335826298
H           -5.13950188229532        1.67410273054221       -1.63065816606400
C           -6.61621148659293        3.20694165984427       -1.13947884827521
O           -7.19763904144221        0.05753713337567       -1.60555763114580
H           -7.59300471244475        2.71505159061708       -1.23585604507054
C           -6.74462184663629        4.28104224004257       -0.06147700932274
C           -6.26419070240089        3.85126416184583       -2.48024986897058
H           -5.82249066288412        4.85288235895151        0.01154458625037
H           -7.55557332025757        4.96473244676046       -0.30115556182554
H           -6.94617822781711        3.83631188646000        0.90948730291636
H           -6.21959749562741        3.11295754404040       -3.27974259462117
H           -7.00935491301794        4.59568143307827       -2.74957862050462
H           -5.29701948456280        4.34488796616522       -2.41695413585652
N           -6.94829743728269       -1.08027435256711        0.36067881456031
H           -7.01511409366174       -1.81479666615328        2.03485137094198
C           -7.75183452672651       -2.18904101119112       -0.10735660459671
H           -8.75084649762877       -1.82669196696860       -0.38970098760754
C           -7.17624963854484       -2.95842442280970       -1.29906172421798
C           -7.93689175632314       -3.14392000275499        1.08451187603037
H           -6.16363294344217       -3.28898997958446       -1.08459682924941
H           -7.79834819284488       -3.83107500576306       -1.47699747578857
H           -7.16921966698687       -2.33240185097656       -2.18691820810297
O           -7.42394047588224       -2.69131402120256        2.22241564501024
O           -8.49654621231488       -4.20053710377483        0.99004192521654
