42
 energy: -62.486133521683 gnorm: 0.000478958567 xtb: 6.7.1 (edcfbbe)
N           -1.26706168525518       -1.41517835456810        0.91061425107013
H           -0.26629661509745       -1.51831234402270        0.79560171331247
H           -1.66735069125889       -2.34797092821016        0.96490104675420
H           -2.53903622007352       -0.42299517438937        1.98154183550294
C           -1.85391639273105       -0.68466361619071       -0.21043631042788
H           -1.23476200269800        0.20615243167227       -0.37883368272546
C           -1.95259229193388       -1.47749098788649       -1.51309218970430
C           -3.21593783495979       -0.18317838155228        0.24961177025344
H           -2.55040770322106       -2.37543372135073       -1.36521950498467
H           -2.42203854705676       -0.86515345061186       -2.27604479418104
H           -0.96109549322739       -1.76979194452634       -1.85305028522743
O           -3.36010900677853       -0.07712847343805        1.57689545249606
N           -4.08550422138460        0.13125222619465       -0.60687006480523
H           -4.99307447035251       -1.36013739077830       -1.42537620345545
C           -5.40016021625972        0.59316419521539       -0.20470855380394
H           -5.43842579481547        0.87245223972860        0.85378383468824
C           -5.72590051948857        1.81052549838533       -1.09059942723484
C           -6.37227615997153       -0.54505810223236       -0.44194735873645
H           -4.95616234361432        2.56104626072762       -0.89569883872206
H           -5.62155868931034        1.49630165057738       -2.13163170757252
C           -7.10588230373642        2.43880908776445       -0.88760037530696
O           -5.90399372904098       -1.58393597660574       -1.15461778757539
H           -7.86744077195236        1.68263930075927       -1.09536254684169
C           -7.29626788896507        2.94789541316856        0.53863551669234
C           -7.28579364211836        3.58667605972963       -1.88041532509633
H           -6.53469162519109        3.68612116156301        0.78269057059429
H           -8.27227971599379        3.41560148605641        0.64118184366267
H           -7.23303822738901        2.13387620899331        1.25521076077826
H           -7.17346797304610        3.23517819594732       -2.90343976466309
H           -8.27593852785116        4.02292720562657       -1.77617661088968
H           -6.54703797914279        4.36553624917062       -1.70176230917629
N           -7.56213905107778       -0.44786006234614       -0.03834779218077
H           -8.94076428634111        0.54883373565254        0.64053518109687
C           -8.53318344954382       -1.48924722711599       -0.29147822696314
H           -8.48789983105618       -1.84359616563286       -1.32952848801575
C           -8.34433678275144       -2.68772068522823        0.64534179875622
C           -9.92312965192628       -0.89080783716586       -0.03184314264292
H           -8.33897838809021       -2.35272483081763        1.68078017219778
H           -9.16296321982642       -3.38730765759281        0.50106589110453
H           -7.40164322427387       -3.18327691707535        0.42735115375200
O           -9.89011548698937        0.30180539779948        0.54970688465507
O          -10.94153860314239       -1.45984960344666       -0.31243334698633
