42
 energy: -62.486133494812 gnorm: 0.000482998459 xtb: 6.7.1 (edcfbbe)
N           -1.22513019897421       -0.81586035770319       -0.57092087509315
H           -0.55505982496240       -1.56925668161686       -0.66796103324803
H           -0.87094947173262       -0.18284389804284        0.14128008586148
H           -2.24039644408979        0.37091116730908       -1.67097367164789
C           -2.53395685540846       -1.32939243005225       -0.16619556164293
H           -2.76558953701982       -2.17874631087896       -0.82237123051410
C           -2.62422556712424       -1.77931632078801        1.28862474839635
C           -3.55895279447323       -0.24496312444909       -0.48529133123716
H           -2.37239886651549       -0.95426683750338        1.95169422204919
H           -3.63993382062725       -2.09139007683448        1.50497338789258
H           -1.94187112913847       -2.60638227507136        1.47444485667629
O           -3.17265896407620        0.59445280459186       -1.47058366588945
N           -4.64612947912377       -0.24642618182474        0.13719991891337
H           -6.26809062138675        0.30599187541379       -2.38086910112432
C           -5.75371152197713        0.66767409624124       -0.02315302840923
H           -6.06270521624001        0.88729885248075        1.00543870413977
C           -5.52130906760739        1.98354258197315       -0.77493892514184
C           -6.85166754915443       -0.18928022018883       -0.62489086537335
H           -4.73548812826865        2.53268176439476       -0.25173368410360
H           -5.14498091238424        1.79298057799940       -1.78377124188995
C           -6.78014152519351        2.85791946058474       -0.86115812551781
O           -6.92583253408323       -0.26945964035600       -1.96815203701692
H           -7.59442605062650        2.27319327417252       -1.30521872206366
C           -7.23541599257737        3.33884541514389        0.51469703820301
C           -6.50022859390405        4.05799218887215       -1.76554427542011
H           -6.42552727349712        3.85788267257470        1.02327295154184
H           -8.07032204983164        4.02797290191905        0.41024629570047
H           -7.56249677272994        2.50855899018731        1.13483480360879
H           -6.20246898016462        3.73690543215065       -2.76167831547574
H           -7.38783759465273        4.67887922327606       -1.85963649799878
H           -5.69986919333780        4.66549336501482       -1.34843155812220
N           -7.57964947211498       -0.86659154222134        0.14573500414036
H           -8.21525529385986       -1.21010910357044        1.80812444140413
C           -8.58149931112331       -1.78215334316038       -0.35180064126273
H           -9.17527066055058       -1.33907894017372       -1.16123765330451
C           -7.95548997876269       -3.08776728270745       -0.85510067749849
C           -9.51274532186352       -2.11552314653899        0.82348209145613
H           -7.32064478238167       -3.51488711830059       -0.08150966789028
H           -8.74511990226159       -3.79238557901880       -1.10058942795588
H           -7.35410641832672       -2.89389914125247       -1.73947130317485
O           -9.05631435789860       -1.69041241628025        1.99479784314343
O          -10.54032321901306       -2.72081047535328        0.69327187304305
