42
 energy: -62.486133504437 gnorm: 0.000481012601 xtb: 6.7.1 (edcfbbe)
N           -1.04873213662314       -1.32024745751895        0.47305532560222
H           -0.06211105660747       -1.30010710224952        0.24557759131969
H           -1.33681974489801       -2.29521519164200        0.48782404572355
H           -2.25875265518478       -0.54732863414987        1.74732771094793
C           -1.83156023000911       -0.58715812764787       -0.52235159460620
H           -1.31146826497978        0.36000318247673       -0.71544363007942
C           -2.04421794128010       -1.32334552030681       -1.84308460362598
C           -3.15762241471492       -0.22429427603099        0.12415374882826
H           -2.52532614779725       -2.28338120002777       -1.66454780659706
H           -2.69077576781259       -0.73189890276304       -2.48249669817040
H           -1.09276544090425       -1.49127263351993       -2.34340405965374
O           -3.16039236896957       -0.27483581199993        1.48075978151912
N           -4.14780376558254        0.07551849786245       -0.58492462890757
H           -5.01216538252952       -1.48214654335160        1.21814645339825
C           -5.39324122646409        0.53183549371800        0.00120427799119
H           -5.23702818109123        0.89190401179769        1.03134516278650
C           -5.94618808880594        1.65296426319731       -0.88083353935824
C           -6.31698317739751       -0.66356244707343        0.07854934625393
H           -5.13104352637801        2.34938366269272       -1.08624725080235
H           -6.24763450334343        1.20578176979798       -1.82754762788616
C           -7.12255032523284        2.41220432893599       -0.25694589853101
O           -5.87065830852887       -1.69663081664605        0.82637167705596
H           -7.80861313412190        1.68534234799142        0.18697190730036
C           -6.64961468531256        3.37135144747704        0.83409217361613
C           -7.86842394382422        3.18909238811443       -1.34032364957698
H           -5.98228488204599        4.12197337556279        0.41509263605711
H           -7.49883797313599        3.88196832616113        1.28232078380595
H           -6.11971072559520        2.84476430614836        1.62397637237180
H           -8.26298273542017        2.51792603520035       -2.09897591918148
H           -8.69966605432981        3.74096997537389       -0.90810537882195
H           -7.20046703484306        3.89964774092731       -1.82279184736588
N           -7.42978777729723       -0.66026810778214       -0.50477871963540
H           -8.51841030667146        0.07234262524395       -1.73927646669463
C           -8.34101162378924       -1.77931062677057       -0.45053128080179
H           -7.82441328482861       -2.73602781434897       -0.59735934008039
C           -9.10255440466650       -1.82678370437028        0.87870471036086
C           -9.35817855850410       -1.58347838045590       -1.58662740037689
H           -9.59238973559609       -0.87215424694609        1.06093697969979
H           -9.85489703306180       -2.60895612461077        0.83286145519957
H           -8.41367403140576       -2.03409766061779        1.69375296776675
O           -9.27292871081562       -0.39560591554226       -2.17161544628814
O          -10.16150397341075       -2.41889237156722       -1.89587724261736
