42
 energy: -62.486133507870 gnorm: 0.000480686080 xtb: 6.7.1 (edcfbbe)
N           -1.27959375478594       -0.86446378665694       -1.03190030067906
H           -0.57957495156473       -1.59120456667187       -1.11721089714578
H           -0.83845408216113       -0.06648067623028       -0.58224693742138
H           -2.60889638981727       -0.03161864581927       -2.11176787929308
C           -2.41315802095690       -1.32072704096984       -0.22649697125437
H           -2.69296566863609       -2.31727349740077       -0.59324898678175
C           -2.14776874241106       -1.39192141655122        1.27418323170759
C           -3.58285319899912       -0.39834247716399       -0.54329758717918
H           -1.83305122997446       -0.41844078770601        1.64530571438530
H           -3.06168879653753       -1.67268103451549        1.78623153150706
H           -1.37092171256925       -2.12272324900982        1.48968245841546
O           -3.50042338619283        0.18405504237261       -1.76657334212401
N           -4.53006031062258       -0.30369706613247        0.27159945984484
H           -5.69546398353790       -0.10750628973866       -2.19932385393642
C           -5.69268560521165        0.54511232378370        0.11380274406126
H           -6.05346918469221        0.69332505158943        1.13731721614508
C           -5.48405953635750        1.91158540858606       -0.55051503395417
C           -6.72939846608521       -0.29290881195358       -0.60041248545351
H           -4.73949389769398        2.45755983405064        0.03392010619079
H           -5.08009811388489        1.79270814112452       -1.55790514477468
C           -6.77551174633481        2.73492451213928       -0.63675989187878
O           -6.52093021989728       -0.52407206538391       -1.91136365148379
H           -7.52985830772783        2.14848864425297       -1.17418365684310
C           -7.33027702806477        3.08266622134097        0.74244165106462
C           -6.50275810385929        4.01363044700782       -1.42832135657621
H           -6.56864147378083        3.57140075949603        1.34665692459918
H           -8.17470703904561        3.76050923475885        0.64286847910506
H           -7.67456607730700        2.19367650742400        1.26345794074263
H           -6.13439257059573        3.78328489460452       -2.42585953683961
H           -7.41247898781407        4.60032946988764       -1.52863854162344
H           -5.75764632849623        4.62125988167961       -0.91874404260307
N           -7.67886832124524       -0.79649299554863        0.05419393926475
H           -8.72421741127959       -0.83278202199222        1.53572634253928
C           -8.66033634506334       -1.65685715989167       -0.56926253179232
H           -8.97860885548550       -1.27580535716935       -1.54764975265582
C           -8.12485053371445       -3.08258236304596       -0.74260636305188
C           -9.87804384743044       -1.70840757103384        0.36534031991250
H           -7.75691734970889       -3.45754475751004        0.21033550126549
H           -8.92513672823350       -3.72646451718397       -1.09633842435423
H           -7.31064260385251       -3.08677173760911       -1.46288891957168
O           -9.64664121881622       -1.18048135303072        1.56107049230548
O          -10.92608112942070       -2.19829090808147        0.04831717774958
