42
 energy: -62.486133504115 gnorm: 0.000481246148 xtb: 6.7.1 (edcfbbe)
N           -1.02348984679639       -0.40099954779019       -1.45113278155235
H           -0.25373395361612       -1.01639416744776       -1.68255080952564
H           -0.63996854054268        0.39259445996572       -0.94522553834197
H           -2.50281015128056        0.43024740854787       -2.28061628657914
C           -2.01665205662992       -1.08400824201325       -0.62400126317093
H           -2.17936015424216       -2.07725383936438       -1.06231905670988
C           -1.62491578560343       -1.24069069277100        0.84315307473435
C           -3.32918259227656       -0.31097079423918       -0.76704606659200
H           -1.42703544431557       -0.26501702490779        1.28260489876198
H           -2.44240459848145       -1.70019341231585        1.38808938500134
H           -0.73438227087460       -1.85887121033779        0.93617459376448
O           -3.38515504186607        0.47563595924391       -1.85410895188186
N           -4.22388192403919       -0.49825863092949        0.09673643914940
H           -5.15455471675487       -1.76191626952540       -1.31820199485524
C           -5.52688911143500        0.12257006552488        0.15296392788269
H           -5.76265505115225        0.17133069473625        1.22162425705091
C           -5.59185310131214        1.54424572939716       -0.44091130105217
C           -6.55999321429620       -0.78451493200080       -0.49134536797124
H           -4.75120417884783        2.10167192238857       -0.01905443064363
H           -5.44119346495016        1.48303662952406       -1.51981850208700
C           -6.88589822219288        2.31708598194447       -0.17397915270621
O           -6.12300698815704       -1.75383899285611       -1.31455985362675
H           -7.71376139439900        1.77898675509330       -0.64245496124951
C           -7.17939248739103        2.47108998706827        1.31592945308177
C           -6.78196524695006        3.69549953280287       -0.82688133740344
H           -6.34208079622708        2.94838207581266        1.82166415710134
H           -8.06217820809633        3.08970989284016        1.45770856161270
H           -7.36528066800963        1.50816438217177        1.78363281533085
H           -6.58158510330727        3.60484928915973       -1.89189282271009
H           -7.71167385176733        4.24431881593297       -0.69977403005762
H           -5.97802546778429        4.27283803823566       -0.37424047985030
N           -7.78092137406657       -0.57505754083502       -0.25940410335297
H           -9.12048997377195        0.43774721806027        0.47718855599040
C           -8.82065874683007       -1.37079451986001       -0.87359658854734
H           -8.65445301758248       -1.49553151913370       -1.95103929966973
C           -8.93951080302101       -2.75734291813072       -0.23000645056812
C          -10.14861828416763       -0.62993877216976       -0.65921833461792
H           -9.06459805184917       -2.65757229973685        0.84640385568803
H           -9.80329905509476       -3.27052604517912       -0.64317897868946
H           -8.04287175824301       -3.33778545423349       -0.43105893237045
O          -10.06569585786930        0.37155617632972        0.20810197917373
O          -11.16891071157067       -0.94610995624782       -1.20542317291684
