42
 energy: -62.486134100244 gnorm: 0.000279828889 xtb: 6.7.1 (edcfbbe)
N           -2.71781546378641       -1.22444441252016        1.98506925576615
H           -1.77474569163758       -1.57301021126934        2.10924226864708
H           -3.35297770019494       -2.00477097408177        2.13836299642150
H           -3.88830895786225        0.22144416500019        2.49331313278886
C           -2.90545267948081       -0.70348831794372        0.63153549790315
H           -2.09463168983643        0.01415560112064        0.44389034781623
C           -2.90620816966173       -1.76311639029549       -0.46831094616265
C           -4.20131440647545        0.09025437538767        0.65019524850610
H           -3.61564077026544       -2.55119325422068       -0.22685957408551
H           -3.20248516305574       -1.30741750427491       -1.40665495257090
H           -1.91573021133012       -2.20124376621327       -0.57296556729287
O           -4.53691280288166        0.58478330392070        1.85640413671763
N           -4.87226621247838        0.23783832016533       -0.40313380742839
H           -8.51479023058234        1.34302045582990       -0.60419206998443
C           -6.11676801243768        0.96591026662232       -0.37750365950435
H           -6.15839764080465        1.66455581621381        0.47448376072022
C           -6.28114330872551        1.73365973377614       -1.70500635742188
C           -7.24227706983818       -0.02373356410184       -0.15756903685796
H           -5.38137774088201        1.54906121481310       -2.29332668316546
H           -7.12033563352098        1.32593846220118       -2.27534936770343
C           -6.46597285972334        3.24548395212948       -1.52686122119480
O           -8.50598915000363        0.41492039809573       -0.33675726422557
H           -7.25814337634077        3.42956433330022       -0.78812355334185
C           -5.17819607363141        3.89142431248085       -1.02195683065016
C           -6.88944092065859        3.87938559247020       -2.85051774986452
H           -4.38772816088569        3.77386592948697       -1.75954009743211
H           -5.32885411496957        4.95355780367128       -0.84298374024728
H           -4.84721993494130        3.43144430748757       -0.09429990712843
H           -7.82849789438876        3.45771585748000       -3.20364672841082
H           -7.01974377419919        4.95259594563614       -2.73397089699174
H           -6.13018763211996        3.70656842731336       -3.60965109289635
N           -6.95309462976888       -1.18039835954878        0.23476325610169
H           -5.68911882820044       -2.17688057733513        0.84311786331705
C           -7.89800576968091       -2.21645963336568        0.55955909871269
H           -8.69697052088092       -1.85063529599905        1.21739163939605
C           -8.52828123826834       -2.84401650974510       -0.68687123022110
C           -7.09162087965265       -3.29203050962076        1.31234385605353
H           -7.74842509409252       -3.15862905309184       -1.37735243464764
H           -9.11662636223850       -3.70899968138023       -0.39383163392384
H           -9.16969072568915       -2.11965569013392       -1.18245482336378
O           -5.78615334402527       -3.04109141212382        1.32912956019010
O           -7.58865041697627       -4.25795905612522        1.81982404616677
