42
 energy: -62.486133505764 gnorm: 0.000480248632 xtb: 6.7.1 (edcfbbe)
N           -1.12982908357173       -1.03084800198612        0.90431475059643
H           -0.14325368556160       -1.15474619219130        0.71233398087543
H           -1.48492423109776       -1.91167150724125        1.26642882777984
H           -2.31788042062980        0.22497414146079        1.77764746866195
C           -1.85934988024482       -0.66007795390607       -0.30659788896242
H           -1.29755784752854        0.15147866768896       -0.78800462806305
C           -2.05584536933585       -1.79695534569891       -1.30861677439593
C           -3.18663470768476       -0.06530094330598        0.14250105680712
H           -2.65455684395571       -2.59057554619346       -0.86581480354711
H           -2.56794070673340       -1.42541003626138       -2.19001661567978
H           -1.09241234453881       -2.20603376807052       -1.60677796537467
O           -3.18715187018562        0.43932724107901        1.38340655741674
N           -4.16415771500149       -0.04724874823864       -0.65041062326475
H           -5.19216554475679       -1.24470451319094       -1.74568846692102
C           -5.44648731407972        0.50050294885149       -0.25662529041587
H           -5.48910634814559        0.73780713118135        0.81087355508198
C           -5.70152156180985        1.77167449533371       -1.08788219067803
C           -6.47787002121572       -0.55922892509224       -0.57684454774110
H           -4.89586400874388        2.47511327002816       -0.86458495365609
H           -5.62388138736170        1.50273060142364       -2.14449729208887
C           -7.05151739490491        2.44745937169151       -0.83388254530795
O           -6.11824143185403       -1.45069977110938       -1.51058689532171
H           -7.84752373863568        1.72183121355101       -1.02472227844567
C           -7.17810186675702        2.94272681899210        0.60433749164890
C           -7.22035698141119        3.61567842691258       -1.80451319029028
H           -6.38236275389408        3.64879444711790        0.83379873915873
H           -8.13280058842201        3.44369351170288        0.74337514130776
H           -7.12417369982367        2.11798126311683        1.30909582495828
H           -7.16245383847504        3.27483802269168       -2.83572844573402
H           -8.18611625289631        4.09203937237810       -1.65625534713029
H           -6.44252836991449        4.35966926942922       -1.64395872109773
N           -7.59576245490364       -0.53872086792780        0.00504481667826
H           -8.86587102974850        0.41950722788245        0.88423443445340
C           -8.62929941953864       -1.50189005654258       -0.30525459019320
H           -8.68799265991080       -1.70790783132236       -1.38191980064717
C           -8.41027710861275       -2.82379621741742        0.43806972121293
C           -9.96542466786232       -0.89958369332139        0.15428107947897
H           -8.29963439968680       -2.63571832889547        1.50417466323345
H           -9.26732887426624       -3.47167868220231        0.27708941466236
H           -7.51203895036580       -3.31201515191738        0.06807474086174
O           -9.83115364626202        0.21975370445511        0.85494366325958
O          -11.02684023963714       -1.40479489719319       -0.08590707656879
