42
 energy: -62.486133515950 gnorm: 0.000479026608 xtb: 6.7.1 (edcfbbe)
N           -1.87958173699221       -1.84069802912063        1.14889114717744
H           -1.67414728015207       -1.27978038669076        1.96936659925112
H           -1.06531758780453       -2.40910213248769        0.94797757525725
H           -3.81614157412724       -2.02965727680258        1.30744662803454
C           -2.21251519808773       -0.98737403006715        0.01077391229051
H           -1.56711371423841       -0.10349871797898       -0.09061672486781
C           -2.14883149837303       -1.80390735108881       -1.28154149129592
C           -3.64264821533474       -0.51716044403735        0.21258333251832
H           -2.82206616399649       -2.65663777176008       -1.22082805409075
H           -2.43580685617941       -1.18097132964761       -2.12355957235487
H           -1.13757618917047       -2.16940743230062       -1.44723531429951
O           -4.40238941987529       -1.32383286396083        0.96555481853426
N           -4.02656372696589        0.54893519995338       -0.33637586044775
H           -5.36555719084024       -0.41459905356338       -2.12880341559159
C           -5.40402770550258        0.99416841866102       -0.20848595355248
H           -5.59054004446275        1.30234782243805        0.82559528445365
C           -5.60457517475455        2.18230539619470       -1.15973252662081
C           -6.36586485968554       -0.12351364978506       -0.53292685867745
H           -4.90655064666434        2.96556985501367       -0.86115656877212
H           -5.32568276599560        1.87057231178681       -2.17023661335924
C           -7.03320173060817        2.73542167800423       -1.18049898108596
O           -6.14737383679599       -0.77927092290679       -1.69234651510938
H           -7.72063255090413        1.92454283032513       -1.44643418377944
C           -7.44697480004553        3.28847811663895        0.18051886748582
C           -7.13794246552758        3.82770340261872       -2.24390779528094
H           -6.74398678254098        4.05099016745994        0.50953480386450
H           -8.43507380251437        3.73751237008111        0.11599483857089
H           -7.48542164065925        2.49981749087314        0.92638243134353
H           -6.87278023561827        3.44153520176050       -3.22571929244603
H           -8.15279509856889        4.21443430266492       -2.29243718533884
H           -6.46789459906991        4.65130463990502       -2.00640777385880
N           -7.30774993249425       -0.39310878355228        0.25571639499817
H           -8.33817262999382        0.04783299785100        1.66723957191684
C           -8.25408482249160       -1.45144605125540       -0.01774316676193
H           -8.60528978151267       -1.42723364210760       -1.05728212444532
C           -7.65562004148842       -2.83245037358499        0.27091241570095
C           -9.45411654618369       -1.23669474777916        0.91627141301880
H           -7.24092531684452       -2.85022444507411        1.27654968684869
H           -8.43393834607517       -3.58586590476857        0.18817043121982
H           -6.86345843267718       -3.04743403633961       -0.44145112988956
O           -9.24049502643566       -0.31078458590218        1.84303921418378
O          -10.47476528159114       -1.86084404280601        0.82614284372727
