42
 energy: -62.486133511070 gnorm: 0.000480017715 xtb: 6.7.1 (edcfbbe)
N           -2.35296649157890       -1.80678543443282        1.57991786120637
H           -2.29969842888788       -1.27288182318723        2.44114245735207
H           -1.46724063131814       -2.28047993402218        1.44884288055774
H           -4.20825943092429       -2.22184294823051        1.47504359685158
C           -2.65216057685630       -0.93452826908231        0.44691380317474
H           -2.10678322882781        0.01872177282137        0.46005613201142
C           -2.34868318430440       -1.66766873456474       -0.85993741995623
C           -4.14996548176851       -0.63432207432948        0.48903759374343
H           -2.88478966440484       -2.61377724028371       -0.89051521607172
H           -2.66092790062707       -1.05633011266734       -1.70112820300878
H           -1.28251668661097       -1.86686756557739       -0.94580918751259
O           -4.86360286764004       -1.59372084287339        1.09821096737487
N           -4.52597873389630        0.43943820308988       -0.03235523869638
H           -7.45652486565482        0.91652437645565       -2.10231417062614
C           -5.83505416281163        1.01433325826030       -0.22275399603582
H           -6.07507991393778        1.53640689038885        0.71735635448796
C           -5.67626869291980        2.07063477316354       -1.32852907375680
C           -6.98834132056876        0.04567491501820       -0.44546766319828
H           -4.68958165442661        2.51389367528324       -1.18752784470413
H           -5.64894622089611        1.57869896620814       -2.30638163663622
C           -6.73496956709609        3.18537988468704       -1.29868261043821
O           -7.74034733443488        0.16705518391386       -1.56497905743356
H           -7.71866455917291        2.76236601961512       -1.06052773727448
C           -6.40197142756819        4.21652691004069       -0.22217732091355
C           -6.81830261487288        3.86910469436375       -2.66328962396393
H           -5.45416632068087        4.70178498236512       -0.44442933137497
H           -7.17582122721536        4.97916378055742       -0.17507887694662
H           -6.32649633554519        3.74953966283655        0.75654030774626
H           -7.11634985633974        3.16908879629514       -3.44221033844575
H           -7.54582554818370        4.67684080564475       -2.63970190534152
H           -5.85132304986711        4.28809024819448       -2.93302695925270
N           -7.20010009070019       -0.85566376166895        0.40225229149453
H           -6.69605541869521       -1.79698991722202        1.94056458919596
C           -8.25485340455813       -1.82800235627212        0.26701417784274
H           -9.21073697132250       -1.36349433305283       -0.00595291612075
C           -7.90832318490667       -2.90150536380360       -0.77231614688133
C           -8.39773669310076       -2.52182827087990        1.62898528319595
H           -6.94040370356274       -3.34034862890946       -0.53795932035572
H           -8.66792441374979       -3.67813739686012       -0.75682808131275
H           -7.86606776514960       -2.45713578433999       -1.76356707345012
O           -7.34036672496895       -2.37653619985914        2.41352340416682
O           -9.36601487123380       -3.16244685850844        1.93698064053143
