42
 energy: -62.486133514315 gnorm: 0.000479662104 xtb: 6.7.1 (edcfbbe)
N           -1.25439472156070       -1.27458245925272        0.96568852819730
H           -0.25962448207000       -1.40396332182930        0.82547567722345
H           -1.65774513155620       -2.18661965875355        1.16198435052163
H           -2.47707545978177       -0.12841842861722        1.93921092710647
C           -1.88243213183574       -0.69630719944460       -0.21992402168187
H           -1.26736318841720        0.15919490942644       -0.52805237667396
C           -2.03109958530977       -1.65613171938444       -1.39924523146491
C           -3.22523248599582       -0.13019091503616        0.22044923097338
H           -2.66224749568211       -2.49857457424966       -1.12302057449080
H           -2.48748827429455       -1.13833025993262       -2.23617449972474
H           -1.05625158913369       -2.03128470711650       -1.70456124579412
O           -3.31091570014596        0.16934132172823        1.52333281771641
N           -4.13294374025122        0.05479269520057       -0.63199376227969
H           -5.15078187262939       -1.17109881879584       -1.74962242162617
C           -5.43144917966880        0.57555584570817       -0.25281549367844
H           -5.48845867728406        0.82931093040648        0.81012051091999
C           -5.70826621833579        1.82133387389713       -1.11396868548780
C           -6.43722178316237       -0.51245790177924       -0.55861850118601
H           -4.91814192170606        2.54616145092509       -0.90506876210089
H           -5.61948341220686        1.52885262927202       -2.16319964379084
C           -7.07299677139352        2.47508802648021       -0.88229236966893
O           -6.06330129415450       -1.40226258431320       -1.49039856069971
H           -7.85307657358280        1.72701629701576       -1.05130009050581
C           -7.21274437166287        3.01127525130248        0.53994250974474
C           -7.26551323973397        3.60937175554124       -1.88816732598406
H           -6.43408961368919        3.74272362963111        0.74766673302620
H           -8.17898973159591        3.49396976622806        0.66315643209178
H           -7.14044822630196        2.21027721491953        1.26997245954150
H           -7.20057380630651        3.23839257393509       -2.90851295845628
H           -8.24068922611880        4.07062079763380       -1.75422987856789
H           -6.50280222827740        4.37331930475442       -1.75094765205134
N           -7.55322667015516       -0.51385177191361        0.02624786128481
H           -8.84018049655278        0.41994512349284        0.90647821941194
C           -8.56390726000265       -1.50548756302599       -0.26864170912505
H           -8.62762910443194       -1.71928909111274       -1.34355846894008
C           -8.30217613022443       -2.81657533019582        0.47991324011483
C           -9.91101288582560       -0.93533585214002        0.20020635811083
H           -8.18104446782388       -2.61852461520204        1.54298404667013
H           -9.14510445643108       -3.48637298681408        0.33537228344682
H           -7.39756862204887       -3.28519310609390        0.10030578025862
O           -9.80003665020711        0.19429621175065        0.88802346041686
O          -10.96046238256893       -1.47201257298755       -0.02328218851451
