42
 energy: -62.486133509754 gnorm: 0.000480498586 xtb: 6.7.1 (edcfbbe)
N           -2.86973607207843       -2.25196968410671        1.66188604613776
H           -1.96105531174731       -2.66761008535417        1.82191508197280
H           -3.44849590132872       -2.94491432757057        1.19205655996433
H           -4.33995220881557       -1.39955403527103        2.46726244375118
C           -2.76086064336523       -1.05174552173127        0.83640899186004
H           -1.97665674727563       -0.41978695178348        1.27146234410346
C           -2.43784316145084       -1.31748670657332       -0.63378296457476
C           -4.08095372480713       -0.30041332420940        0.96950644090827
H           -3.16202298854391       -2.01250018381272       -1.05457517938247
H           -2.49014904881674       -0.38479959818047       -1.18532317062907
H           -1.44191980233727       -1.74400659717199       -0.73422284507253
O           -4.81395349902713       -0.65511372519122        2.03747474742849
N           -4.34245199315818        0.62954100387049        0.16286477277862
H           -7.90936437106993        1.88975206039589        0.69567993061560
C           -5.62772015249564        1.27549289971443        0.06085730069201
H           -5.67874372501253        2.08599108949972        0.80485603765215
C           -5.67511596682715        1.87199821975123       -1.36176304385456
C           -6.80974950438972        0.35954240923919        0.29486138942539
H           -4.73584505474078        2.40834402614739       -1.50358223083986
H           -5.68075602250351        1.03227905182787       -2.05902571564028
C           -6.84688790636394        2.80567704882357       -1.68101406053009
O           -7.99260865444336        0.93206246755276        0.61064795176966
H           -7.79264599119199        2.28042778701922       -1.50611359921623
C           -6.81143398472973        4.08060660430221       -0.83820482378941
C           -6.79603225308516        3.17754154676535       -3.16320385763434
H           -5.88203105096750        4.61752232328749       -1.01499001417117
H           -7.63907650303782        4.73337284641978       -1.10747219221417
H           -6.88148261350853        3.87634542457389        0.22876618031645
H           -6.85560260721292        2.28780682953685       -3.78520031061154
H           -7.62581717484296        3.83168573852119       -3.42094325431495
H           -5.86699453869890        3.69474984219791       -3.39202731146789
N           -6.65166666318356       -0.88487123012013        0.22817800943280
H           -5.52184685498276       -2.18485300355813        0.06255076038777
C           -7.68139025142745       -1.85994776893029        0.47736281253015
H           -8.22247875740727       -1.64884648179029        1.40796912011616
C           -8.68692536544113       -1.95614666540215       -0.67441711742948
C           -6.95798682828455       -3.21032864629964        0.61749831665506
H           -8.16163779055240       -2.11383300444486       -1.61464306855352
H           -9.35691221348793       -2.79262893038085       -0.49663778212148
H           -9.26408152124078       -1.03744650962410       -0.74021620500888
O           -5.67153293648884       -3.14327566322673        0.28192104903907
O           -7.49577287932961       -4.22068655412007        0.97430725129907
