42
 energy: -62.486133521595 gnorm: 0.000478671376 xtb: 6.7.1 (edcfbbe)
N           -1.65994492366938       -0.48326750745168        1.13243294895498
H           -0.77613084726951       -0.95056342447071        0.96939558803001
H           -1.96150981083629       -0.72562505842985        2.07256204724525
H           -2.49983980454144        1.24853195023659        0.93694650316333
C           -2.66728249430776       -0.92575976187938        0.16720465584803
H           -2.20652182653551       -0.87329794720721       -0.82820311142402
C           -3.20535924251225       -2.33511504093944        0.40034753255406
C           -3.78590354906838        0.10454525632971        0.18606506634216
H           -3.63923857867941       -2.41385114371249        1.39443733190710
H           -3.98156647863734       -2.54756884662966       -0.32593408088133
H           -2.40700351816529       -3.06792521435852        0.30265550477949
O           -3.42449844148265        1.32560690271309        0.62665639108548
N           -4.93640195237706       -0.22424241504417       -0.19380917762936
H           -8.15698254287184        1.28095052712162       -1.38446496373222
C           -6.02699276252872        0.72343744561865       -0.22450490756430
H           -6.08901013769940        1.25027913594661        0.74102623856522
C           -5.85744098481463        1.76894491822071       -1.34448490708166
C           -7.28831703664889       -0.10816725440107       -0.37600207222945
H           -4.78887718988967        1.94016481599316       -1.48260256234433
H           -6.23150272882627        1.35066172677891       -2.28395579347374
C           -6.52536582115091        3.12081895012880       -1.03905309521169
O           -8.35269080744236        0.40515249090659       -1.02836846120002
H           -7.47415885668153        2.96066957458385       -0.50963530702096
C           -5.62827484413583        3.96266820483837       -0.13373692141511
C           -6.81728695997443        3.87464180403341       -2.33608105488580
H           -4.71880211308976        4.24125257246552       -0.66110641168086
H           -6.14036132973717        4.87117084542170        0.17489467257694
H           -5.34379657288160        3.40670322858662        0.75573406527889
H           -7.50030038958416        3.31738788959072       -2.97539839445146
H           -7.26683304752399        4.84105877573427       -2.12021562835220
H           -5.89516815138490        4.04290846085449       -2.88798746825812
N           -7.28996415038792       -1.24376449613838        0.15969358763173
H           -6.33452635929127       -2.45382941836059        1.01332912808126
C           -8.38815147286371       -2.17407943948641        0.13156532745858
H           -9.30166538605967       -1.73317630200851        0.55054364679612
C           -8.69303257841281       -2.70122853551232       -1.27463928011698
C           -7.95990288253629       -3.36013204032048        1.01662356039888
H           -7.78259971401394       -3.08732541073204       -1.72863384019978
H           -9.42426359367498       -3.50174567840203       -1.20500143183799
H           -9.08842071685098       -1.90198954115669       -1.89578408531057
O           -6.68819969555592       -3.30339986682983        1.38626683929719
O           -8.70210099562098       -4.25352699659138        1.32015755611717
