42
 energy: -62.486133521129 gnorm: 0.000479124116 xtb: 6.7.1 (edcfbbe)
N           -0.84509869038239       -0.58308037320805        0.47694297138899
H            0.10281713705179       -0.62841481982311        0.12463584417934
H           -0.99722873389697       -1.40431514689522        1.05619670662548
H           -2.02028869582097        0.67726780083463        1.32809018045811
C           -1.81489653644667       -0.55501507192388       -0.61616612953812
H           -1.44960216863080        0.16309140784061       -1.36137264464261
C           -2.05112652308805       -1.90342122665404       -1.29589431152743
C           -3.10547581242218        0.02455906315111       -0.05269227102970
H           -2.41336898912581       -2.63306396484841       -0.57333018946320
H           -2.79076882037672       -1.79105339524010       -2.08182374761483
H           -1.12529520453790       -2.27334610887711       -1.73170451363541
O           -2.96208986862457        0.74462101837483        1.06750651941760
N           -4.19050334220061       -0.15902435324693       -0.66570842190489
H           -4.99933599069428       -1.84251465129811       -0.68008967523685
C           -5.44348257675268        0.37415145742258       -0.16233115083325
H           -5.36810849118834        0.63742858486143        0.90206577977878
C           -5.73840575701247        1.64382753982284       -0.97983186778181
C           -6.46671859059856       -0.74006238074515       -0.29671503670783
H           -4.90985113088624        2.32957835196973       -0.78190328709827
H           -5.69695742979484        1.37080723291141       -2.03636123633993
C           -7.05657338990967        2.37022574463345       -0.70267704759271
O           -5.94821383013723       -1.96707925404897       -0.47955723804620
H           -7.87176080289209        1.76624152865653       -1.10539953927345
C           -7.29071662331271        2.59379301788648        0.78818748322650
C           -7.04995134593846        3.70946159680888       -1.43957297088393
H           -6.45259212108743        3.13052179755552        1.22880670380197
H           -8.19168156429960        3.18337361318194        0.94058630321512
H           -7.41086608493792        1.64619587949891        1.30600980416937
H           -6.86997199050662        3.56437697405129       -2.50204958642587
H           -8.00827286655688        4.20857893619745       -1.32048045760132
H           -6.27262578361741        4.36084465675527       -1.04453226708745
N           -7.70591983471582       -0.50689835246315       -0.29568669704828
H           -9.19371257446521        0.59779630477316       -0.10442037647037
C           -8.65741425103926       -1.58782224325924       -0.44552103020972
H           -8.39763430488250       -2.23988487797385       -1.28863749897805
C           -8.76349887780657       -2.44396771355726        0.82338111344351
C          -10.03411754759252       -0.96191559739583       -0.69733903876575
H           -8.99318682820454       -1.81325950637320        1.68037197651082
H           -9.55661385827136       -3.17587371650274        0.69772700213781
H           -7.82271507749168       -2.95807679515426        1.00192634140596
O          -10.10006758436693        0.32368333006901       -0.37004266629704
O          -10.97229790295174       -1.58436214396620       -1.11165880594180
