42
 energy: -62.486133508561 gnorm: 0.000480595566 xtb: 6.7.1 (edcfbbe)
N           -1.69949101545170       -1.14159402989804       -1.98461936972738
H           -0.86618781500871       -1.70361915537757       -2.10838228468229
H           -1.46761358904345       -0.18788609272101       -2.24909947078247
H           -3.59611525426422       -1.14380478669096       -2.41749922394437
C           -2.15352540124718       -1.17445008006021       -0.59617539672942
H           -2.16796485706000       -2.22875550966759       -0.28739621112592
C           -1.29418179631302       -0.37665706129149        0.38222300695591
C           -3.59717947453458       -0.69265962871423       -0.59019611097162
H           -1.23558487834516        0.66269664754642        0.06604174674619
H           -1.74547429223394       -0.40695876270656        1.36814636080078
H           -0.28898971643511       -0.79037441419540        0.43067088144481
O           -4.24202068649673       -0.81745498097805       -1.75927193788146
N           -4.10247325117878       -0.24112306166325        0.47433256259162
H           -5.14882568782548       -2.16936087092131        0.70087185444478
C           -5.48680517538994        0.19724985237729        0.50124900759501
H           -5.69951871787151        0.38803833496287        1.56276531909677
C           -5.69906150409427        1.49292449579682       -0.29675679320348
C           -6.42687025706754       -0.90588379222169        0.05720436586292
H           -4.77858664449347        2.07859594509893       -0.23803264683734
H           -5.86418912845227        1.22424060175107       -1.34049907162219
C           -6.86778524596343        2.34086785092790        0.21872589954391
O           -6.03648666599982       -2.17197958866671        0.31508902431433
H           -7.69530305777732        1.67080736662433        0.46736590767481
C           -6.47090875821032        3.11809689603034        1.47237359986877
C           -7.32907730678646        3.31049471580049       -0.86772038147290
H           -5.67883438793298        3.82815300998983        1.24250656957918
H           -7.32304318262344        3.67099951004783        1.86059961341016
H           -6.11463730833192        2.45192345841594        2.25417543405850
H           -7.66728651470134        2.77561495696601       -1.75162940596003
H           -8.15167886543872        3.92211780983966       -0.50508143863471
H           -6.51376652473197        3.97137541132771       -1.15568640975128
N           -7.54964764613340       -0.61975839136406       -0.43230996670091
H           -8.52144574564534        0.54670658620252       -1.42252374021774
C           -8.49618931343257       -1.63950205554088       -0.82150912190611
H           -8.00231906873972       -2.51974476462309       -1.25212895722165
C           -9.35391286580417       -2.08412534384472        0.36795447144490
C           -9.41784252314355       -1.02173685556382       -1.88399451575197
H           -9.81564863171345       -1.21785005697578        0.83761209311811
H          -10.13198064082336       -2.75631969939761        0.01736161332026
H           -8.73507341422192       -2.59678219188648        1.10029931332958
O           -9.25167881519908        0.28664407506097       -2.03339127479317
O          -10.22098564888532       -1.66119199499731       -2.50472979893297
