42
 energy: -62.486130239195 gnorm: 0.000434770364 xtb: 6.7.1 (edcfbbe)
N           -1.30873817952932       -0.62404376301350        0.28515858546372
H           -0.61456558285136       -1.30832397941512        0.01059811470091
H           -1.13599525651114       -0.38896272181000        1.25900936194827
H           -2.05012741962120        0.99001052800778       -0.30401234839903
C           -2.66226178698413       -1.16567222851559        0.14373450714763
H           -2.70902558293668       -1.68504165347093       -0.82103493196752
C           -3.06592525153436       -2.12979753371502        1.25544253505037
C           -3.61857010164949        0.02085827557244        0.04155596724619
H           -3.02686365192060       -1.62634049887394        2.21877526755916
H           -4.07797630725096       -2.47921025538609        1.09240310873424
H           -2.39238348896660       -2.98416928400771        1.27533798567649
O           -3.01086355893129        1.18622691121036       -0.26289464860969
N           -4.83980974720098       -0.17203262761354        0.24536242224325
H           -8.19361479656676        1.67061353539802        0.28458048780202
C           -5.89197760721299        0.80938741651756        0.13938016553984
H           -5.88067594986082        1.44898773712316        1.03311113183553
C           -5.74745873767485        1.67709377862982       -1.13601484159472
C           -7.19232839116346        0.03130802083826        0.11406555596137
H           -4.74278740215135        2.09859433652679       -1.11962867756330
H           -5.80745174401375        0.99713047697931       -1.98984332150179
C           -6.72843283552499        2.83607794271900       -1.35180496115846
O           -8.35371910990835        0.72467227035315        0.18414911664216
H           -7.74418274171036        2.45206126124387       -1.49824284027501
C           -6.71298616136074        3.83129500169206       -0.19121090336657
C           -6.33832287871700        3.56051059853827       -2.64184424858450
H           -5.70629973344968        4.21882019084195       -0.04998411518277
H           -7.37351061035992        4.66874641818396       -0.40591530213684
H           -7.03477697178953        3.38728248570564        0.75003380804344
H           -6.36020005122373        2.87715208400978       -3.48746051093192
H           -7.02794216075029        4.37710869301933       -2.84365672169480
H           -5.33438552753471        3.97097957861824       -2.55823834429562
N           -7.15514628966338       -1.22255323824892        0.13039095599377
H           -6.15344820638458       -2.63973588504628        0.30269436176321
C           -8.31821362911208       -2.06970561599827        0.16484874864775
H           -9.02132563546574       -1.76705342609220        0.95179632949625
C           -9.06055765652184       -2.10077192516976       -1.17481358235584
C           -7.79943981290693       -3.48573897514695        0.47790556673174
H           -8.36708101392849       -2.34886903684765       -1.97582389831494
H           -9.84140961461299       -2.85494332651042       -1.13378263821369
H           -9.50463474171014       -1.12938378722203       -1.37676770045098
O           -6.47641244990894       -3.56425054801405        0.47904691520133
O           -8.52436287963754       -4.42034290248019        0.68252835089211
