42
 energy: -62.486133507278 gnorm: 0.000480567833 xtb: 6.7.1 (edcfbbe)
N           -0.78983436131692       -0.11420743964015       -1.03605132194888
H           -0.05789181563981       -0.62866873334396       -1.50959139027387
H           -0.43660699535895        0.15364292229352       -0.12191614391585
H           -1.99248918896473        1.30233183398472       -1.39546730450610
C           -1.99550126164665       -0.92623811605771       -0.88576702434267
H           -2.18397156967837       -1.40901306291196       -1.85392664900081
C           -1.89886194645268       -1.99592873461401        0.20060656893813
C           -3.15950212194203        0.04066266591025       -0.65294854439457
H           -1.76763960592559       -1.53053974422856        1.17473716665072
H           -2.80307229306090       -2.59394693573300        0.22656004904272
H           -1.05237056106782       -2.65122668334634        0.00464904690249
O           -2.92130317169868        1.28587670614710       -1.08004282754940
N           -4.19324079483783       -0.40223468074903       -0.09440398990124
H           -5.05608764015190       -1.96606978885784       -0.29568714720631
C           -5.46778036392240        0.24494280154949        0.13740838674274
H           -5.54869068206942        0.37303108866518        1.22585750674054
C           -5.63360970903077        1.60930672535997       -0.54810529545802
C           -6.50916903872934       -0.80236799906874       -0.25368590786094
H           -4.84079740407946        2.25335822512989       -0.16276004133960
H           -5.45690034107098        1.47371763598976       -1.61721499611918
C           -6.97053770622748        2.33374318202679       -0.36545441244299
O           -6.02781292955945       -2.04267819778161       -0.41842454010455
H           -7.72835920819845        1.81232021455588       -0.95237723773712
C           -7.41436058574677        2.38063801069200        1.09359474767887
C           -6.83974115302539        3.75296690670115       -0.91833119271087
H           -6.64427960486044        2.83817144243341        1.71201147083923
H           -8.32178382533402        2.97260531250042        1.18805933899459
H           -7.61849133996544        1.38138390598876        1.46856486187412
H           -6.51194404677644        3.73303542192871       -1.95495436462813
H           -7.79731238970977        4.26575895528747       -0.87230915312890
H           -6.11561345138247        4.32456363142792       -0.34097638617339
N           -7.72717598115301       -0.50583973031612       -0.39108057562671
H           -9.21056439609549        0.64022450408532       -0.26832327049504
C           -8.69201755930793       -1.52824685040586       -0.74239523799407
H           -8.34998240984235       -2.13454110398461       -1.58989733055536
C           -8.99565150245938       -2.45934677489829        0.43937327869765
C          -10.00038188118163       -0.82567560094566       -1.11895492992506
H           -9.31669279962803       -1.87587394975447        1.30052330892045
H           -9.78841388814552       -3.14805348142791        0.16070182696736
H           -8.10456013889383       -3.02269532590877        0.70350328054684
O          -10.07801733511161        0.42463500416103       -0.67603891300210
O          -10.88717626206119       -1.36555001677060       -1.72012970458674
