42
 energy: -62.486133514675 gnorm: 0.000479526322 xtb: 6.7.1 (edcfbbe)
N           -1.43997336338776       -1.32223387162572        1.05691156698945
H           -1.09735050412544       -0.51239612728760        1.56279518667485
H           -0.65449307235750       -1.93919160642790        0.88608050942267
H           -3.27849751098668       -1.43944649373441        1.69873202197659
C           -2.06917653414269       -0.91928394156078       -0.19876014308818
H           -1.52745337240078       -0.12854844338380       -0.73635063907445
C           -2.21653031200176       -2.13727337504211       -1.11284911691837
C           -3.45426303784072       -0.40320233655184        0.14867122996137
H           -2.79843457653239       -2.91111809022835       -0.61600313082780
H           -2.71706750483925       -1.85296731695022       -2.03405621729017
H           -1.23743499709590       -2.54237874175135       -1.36003287950526
O           -3.97833117012830       -0.90096517821160        1.27545024815319
N           -4.02597619743928        0.42043157578099       -0.61550748941065
H           -5.18441503324881       -0.71445859461745       -2.06103901415185
C           -5.37950184046692        0.85268757725103       -0.30766767508648
H           -5.48161330581812        1.09609006009456        0.75508680423556
C           -5.69584884783057        2.07905452549951       -1.17679394683052
C           -6.33547132208658       -0.27281343226229       -0.62274107185902
H           -4.94486514482907        2.84052839276108       -0.95931490590104
H           -5.57613165032966        1.79229733832134       -2.22457700413021
C           -7.09769470863241        2.65922195056406       -0.96628314560276
O           -6.02299162472939       -1.03159883568549       -1.69164628346624
H           -7.83300538764384        1.86013520392886       -1.10531598212965
C           -7.26898477397846        3.23382390831817        0.43753175991226
C           -7.36012303432002        3.74488640089807       -2.00905667770156
H           -6.53772628378648        4.01952494696686        0.61718768246005
H           -8.26359199496833        3.65854322766532        0.54812347962885
H           -7.14688951915236        2.46408525088736        1.19411831939461
H           -7.28590134434047        3.34144232271658       -3.01623345424275
H           -8.35654314394417        4.15981126374531       -1.88050072687950
H           -6.63679400697346        4.55130294922005       -1.90764546262839
N           -7.37041463161951       -0.42976830479741        0.07514355014010
H           -8.60262276599782        0.29385389235053        1.19476258235633
C           -8.33688744100139       -1.46463741390984       -0.21501662614295
H           -8.50396028659645       -1.58222213384636       -1.29360599006647
C           -7.90147567740684       -2.81280269981125        0.36864703514214
C           -9.65886796886613       -1.04926261553894        0.44762160861323
H           -7.67245857013619       -2.70067046391292        1.42637816089994
H           -8.70649228784350       -3.53260054542404        0.25006104306073
H           -7.01507522977107       -3.17056279375111       -0.14938871228205
O           -9.54295380714052        0.00243844302083        1.24894389958183
O          -10.69190747028937       -1.63178167670703        0.26707466716693
