42
 energy: -62.486132326560 gnorm: 0.000615281927 xtb: 6.7.1 (edcfbbe)
N           -2.28025820941755       -2.38314640269156        0.68728298663824
H           -2.58591094105056       -2.49298065964921        1.64864040451241
H           -1.32721403744158       -2.72073689682952        0.62436098510520
H           -3.98206133531505       -2.52287128782389       -0.25693962864954
C           -2.36117919687566       -0.98199782360770        0.27962003952095
H           -1.98030915596361       -0.27359535966915        1.02768641905511
C           -1.59840800660156       -0.78468861695743       -1.03104116237270
C           -3.82992211960536       -0.67509009520778        0.03538509754406
H           -1.96847035992878       -1.47448969498210       -1.78692549309183
H           -1.73175358530469        0.23506976946361       -1.38076896655851
H           -0.53672769713412       -0.96874959277399       -0.88212933476266
O           -4.55648675650842       -1.73698227265074       -0.35809541664462
N           -4.23478287217091        0.50141880303987        0.19175874451757
H           -5.98886083241489       -0.15591958068217       -2.17918170763714
C           -5.58434150623884        0.96777936560235       -0.02795681837180
H           -5.88843653188973        1.40088412683644        0.93167954065273
C           -5.52874043909995        2.08601444026765       -1.08190141267859
C           -6.60447471394918       -0.09811081296035       -0.36863561688629
H           -4.85008950784339        2.85045147642480       -0.70078083256428
H           -5.07938280182513        1.69737209081707       -2.00245581825078
C           -6.88841457322734        2.71732874916909       -1.40474947352958
O           -6.68801854841507       -0.54142888973582       -1.63770775712647
H           -7.55474652876065        1.94950027689104       -1.81391567626734
C           -7.54846717102444        3.30734305625097       -0.16108888815426
C           -6.69881909429629        3.80202208020850       -2.46460783191899
H           -6.87407383992280        4.00196931297498        0.33486318868326
H           -8.45118883673928        3.84580819800741       -0.43972876549953
H           -7.82721290726284        2.52631615722044        0.54112066127229
H           -6.23429920503145        3.39565161386371       -3.36074604590671
H           -7.65752433651219        4.23211200742493       -2.74355343979015
H           -6.06464257329520        4.59801181931998       -2.08042673496280
N           -7.35851445274274       -0.51053900264709        0.55380507070286
H           -8.08148386728073       -0.31268258126962        2.20040534077313
C           -8.35985895812646       -1.52684334006786        0.31641644691505
H           -8.89580418548347       -1.36047320610025       -0.62638687854995
C           -7.74149435498944       -2.92917227414024        0.29411004277551
C           -9.35927084261860       -1.45879293896977        1.47856081184012
H           -7.19751746277592       -3.10754745771214        1.21944106512677
H           -8.53014423299235       -3.66931005172136        0.19365914551001
H           -7.05158729082692       -3.01054784547467       -0.54152929171455
O           -8.94454938102747       -0.69633367992797        2.48477465044571
O          -10.40074796817450       -2.05404840331679        1.48661677564711
