42
 energy: -62.486133526496 gnorm: 0.000477714502 xtb: 6.7.1 (edcfbbe)
N           -2.24910031622189       -0.44482903435143       -1.80894106309533
H           -2.32300105545565        0.50143642551303       -2.16862528737243
H           -2.23885571557017       -1.07800909450044       -2.60071550499166
H           -1.32183712321333       -0.29336861165953       -0.09498988059047
C           -3.37207081357218       -0.75151241181190       -0.92015292780424
H           -4.34585328281967       -0.46503215456851       -1.34013642975048
C           -3.35568103498879       -2.25417667572628       -0.63029076555514
C           -3.09908175453397        0.03444445828434        0.37035179971707
H           -2.39029637807393       -2.54411736379068       -0.21975396253057
H           -4.13232448700807       -2.52654500895223        0.07738495248752
H           -3.52398534555990       -2.80932157187688       -1.55128804139399
O           -1.80173450422008        0.05098327853760        0.68648679230834
N           -3.88065068892425        0.67637643868598        1.12345390061398
H           -5.11763186127558       -1.28242978423041        2.16371101858426
C           -5.31596092395045        0.78557307541978        1.01069382310666
H           -5.65565429336631        1.04103862079283        2.02564600623895
C           -5.68092104458633        1.94051219535391        0.06575924063909
C           -5.97576711181727       -0.51820149832282        0.62891766256305
H           -5.00886322494747        2.77088029916552        0.29016637985792
H           -5.48624839704312        1.61795578316928       -0.95826005939656
C           -7.13485571693730        2.41183156836170        0.18804402162344
O           -5.73185037650683       -1.55311321475965        1.46728788218947
H           -7.78250774754637        1.53133218029480        0.23395062482715
C           -7.34581528444776        3.24554944423579        1.44985104941675
C           -7.51447966968898        3.23289057882172       -1.04349101120683
H           -6.71673897557474        4.13274619582634        1.42637796620772
H           -8.38324721132438        3.56367331813998        1.52175709730091
H           -7.10490947813396        2.67924933820451        2.34566577268133
H           -7.42901792280272        2.63968394789491       -1.95109621280933
H           -8.53978582538147        3.58569631657756       -0.96304408400742
H           -6.86202301639640        4.09858399355190       -1.13541731323763
N           -6.69230208807131       -0.61379961600684       -0.39955788220355
H           -7.21322036446819        0.06229161700589       -2.02678363368285
C           -7.29268714618859       -1.85516593810595       -0.82606505961965
H           -6.68380999317416       -2.73120066800510       -0.57233010106034
C           -8.69085841952948       -2.02417011526425       -0.22130259691742
C           -7.44069009692857       -1.76269733195386       -2.35170520656257
H           -9.30430381926776       -1.15410059356978       -0.44732793446102
H           -9.16051806149207       -2.91007530947805       -0.63935047486441
H           -8.61402160881226       -2.13238660124154        0.85798444220535
O           -7.39783215981139       -0.51312883206478       -2.80461137513057
O           -7.59519590056071       -2.71731524523746       -3.05929568598028
