42
 energy: -62.486133509765 gnorm: 0.000479873144 xtb: 6.7.1 (edcfbbe)
N           -1.35920737169864       -0.57946046295110        1.30873545400341
H           -0.48640513273162       -1.05580255529575        1.11430758200421
H           -1.67123675263565       -0.88271850748807        2.22728786692741
H           -2.15349990540376        1.18775517218077        1.21262375134907
C           -2.37188097918001       -0.92508006220368        0.31009993419477
H           -1.90915159442222       -0.79145274434451       -0.67632018887093
C           -2.92155352949271       -2.34371665843402        0.42048231833098
C           -3.47414247128701        0.11576300077418        0.41796414374057
H           -3.40342198778237       -2.48608648639561        1.38418066019136
H           -3.66067428346656       -2.51083147173791       -0.35401871033167
H           -2.11786173846458       -3.06978861955583        0.31427484782423
O           -3.08003173106558        1.30351460299585        0.92238483110613
N           -4.63954935119174       -0.16284562357887        0.04288722769658
H           -7.68935285889774        1.64342339407183        1.25103271566448
C           -5.68943812236866        0.82471974478329        0.09623504718111
H           -5.51606070294107        1.55644849573284        0.90200856762284
C           -5.73887194703486        1.55110059257178       -1.26372957971000
C           -6.98772827823047        0.09513100092446        0.34125842375445
H           -4.76203125975808        2.01152636252114       -1.42713651418358
H           -5.88138536236826        0.78114177130057       -2.02404125762460
C           -6.83082302624128        2.61706891914542       -1.39880845791477
O           -7.97475401618607        0.75856129925708        0.99205762718899
H           -7.79409496139391        2.18608792052961       -1.10506266808074
C           -6.53865297655956        3.84002262320596       -0.53016138685492
C           -6.93961143760274        3.04362556941350       -2.86216306866748
H           -5.60777454134901        4.30664764290701       -0.84491035951321
H           -7.33742565642385        4.57218147012040       -0.62631952929076
H           -6.44314556325358        3.58217841805410        0.52247912138625
H           -7.19840772214536        2.19535888342039       -3.49095092916030
H           -7.70724693738270        3.80487930796889       -2.98041884536690
H           -5.99354652358441        3.45322339295243       -3.20920338472123
N           -7.09796695644234       -1.08916523203164       -0.05475226277649
H           -6.16371727956385       -2.54920774294574       -0.41578362105182
C           -8.26181559912480       -1.91078944659733        0.14115477501199
H           -8.72410910606940       -1.75708709912193        1.12511436990676
C           -9.31376190846696       -1.66542476481563       -0.94504398191086
C           -7.77604157705008       -3.36929821614372        0.04089444291517
H           -8.85940761033596       -1.76414150443600       -1.92863703089268
H          -10.10999640314856       -2.39763763258764       -0.84495980592450
H           -9.72690866860951       -0.66475137691531       -0.84354592660177
O           -6.50742023159290       -3.47599225474950       -0.32626480302919
O           -8.48607719092807       -4.31110680209492        0.26370347366008
