42
 energy: -62.486133510933 gnorm: 0.000479661892 xtb: 6.7.1 (edcfbbe)
N           -2.90199030757037       -2.10266539566553        1.79025684753540
H           -2.02397212434747       -2.57907655374957        1.95669396380751
H           -3.58637403836236       -2.80630195525229        1.51953801545275
H           -4.14458031450032       -0.86844754605925        2.54851838030813
C           -2.76528415355930       -1.11235053193996        0.72443395367031
H           -1.90289758633007       -0.47940629852615        0.97450951178615
C           -2.57211210148727       -1.69366900326885       -0.67498122466518
C           -3.99855902697359       -0.22606221795271        0.79384693714222
H           -3.35569239962896       -2.41610813233189       -0.89136632548643
H           -2.62612321519992       -0.89351622896535       -1.40513213215864
H           -1.60675522887438       -2.19005945886133       -0.74959884321644
O           -4.60261465334068       -0.20160436522586        1.99431861251929
N           -4.36217161494490        0.44167941215956       -0.21038157935058
H           -7.77656384321753        1.93530713084358        0.65725097028310
C           -5.57682484464402        1.22387806064899       -0.15333987727835
H           -5.48483604724588        2.00461097190207        0.61745039293527
C           -5.74121557102517        1.85839041410637       -1.54708981616553
C           -6.76708514845077        0.36028308846301        0.20779874261882
H           -4.78685938168011        2.33040720984279       -1.78632081718007
H           -5.88466432769924        1.03924079329082       -2.25387307524011
C           -6.86737441112336        2.88275136106183       -1.71802099881826
O           -7.90092913347762        0.98013717960852        0.59855692891053
H           -7.82892865437097        2.41545657385138       -1.47682120679591
C           -6.66484345304024        4.11357247431595       -0.83393124722079
C           -6.92452087669946        3.31620616283902       -3.18318144561546
H           -5.71441263051664        4.58783974593245       -1.06899860084600
H           -7.45880675854576        4.83686086098253       -1.00765823407660
H           -6.66301952763222        3.86896988837367        0.22690531510439
H           -7.09541918923713        2.45986970508048       -3.83085833661023
H           -7.73039822766647        4.02984526765825       -3.33882993894796
H           -5.98830089140019        3.78619390405264       -3.47573790737461
N           -6.65060835679951       -0.89029436250731        0.17261683999807
H           -5.53086875342479       -2.21411318318477        0.13568335086577
C           -7.67673848249785       -1.81668697958597        0.57419330946728
H           -8.21986012685617       -1.47423798815340        1.46399054930225
C           -8.67890748772129       -2.08260804684737       -0.55341750354686
C           -6.94734933185241       -3.12884518972664        0.90690302246968
H           -8.15086041866525       -2.37961282064140       -1.45744154180238
H           -9.35309443532541       -2.88058967809145       -0.25507097528080
H           -9.25228474186830       -1.18185082092572       -0.75795292728043
O           -5.67254217109753       -3.12041199383266        0.52199630103238
O           -7.46894728036692       -4.06500720567488        1.44347755717785
