42
 energy: -62.486133504371 gnorm: 0.000481060200 xtb: 6.7.1 (edcfbbe)
N           -1.66875980941113       -1.55497549319150        1.14798677325039
H           -1.33219672574562       -0.82642085505588        1.76874475150722
H           -0.90152669185792       -2.19133968779441        0.96876322230467
H           -3.54680823666171       -1.62404169206429        1.64378161941730
C           -2.17106861599386       -0.98087770930425       -0.09829631720366
H           -1.55531822289978       -0.15933905026734       -0.49053735240787
C           -2.28193479397848       -2.07287518350126       -1.16355941473189
C           -3.56094328270522       -0.44155644269109        0.19169768604962
H           -2.93082171413257       -2.87361962667316       -0.81512196370278
H           -2.69199049607830       -1.65454020790594       -2.07775320372977
H           -1.29997416681761       -2.48843870703375       -1.38039369063016
O           -4.18780883413505       -1.01079764384325        1.22820313536058
N           -4.04232466413560        0.46470486433188       -0.53958941713354
H           -5.34104607068225       -0.49431427010222       -2.17528729907869
C           -5.39536020190264        0.93896982096979       -0.29350048253074
H           -5.52467177708556        1.20652154151656        0.76040344863982
C           -5.64252434409128        2.15470979483080       -1.19689734533041
C           -6.36876306613876       -0.16988216826102       -0.61130935760880
H           -4.91410925796156        2.92161600250530       -0.92911351930235
H           -5.43868437026390        1.86128842675696       -2.23003302127710
C           -7.05968821857711        2.72883885483019       -1.10485512105081
O           -6.14165510439161       -0.84305852251983       -1.75774381070265
H           -7.77736052086422        1.92893481293777       -1.31751833617038
C           -7.35601702199988        3.28424695805772        0.28562412032530
C           -7.23143597455500        3.82587206910598       -2.15444769608998
H           -6.62247163822552        4.04126974774399        0.55532484287326
H           -8.34251773346848        3.74077863617920        0.30299899622144
H           -7.33775770714243        2.49622891144874        1.03274464821278
H           -7.05146904678381        3.43800344114011       -3.15464116067136
H           -8.24086389980599        4.22807784130818       -2.12127172090910
H           -6.53185362076427        4.63857990809757       -1.97024603438657
N           -7.32253339226088       -0.41547382464939        0.17086875054367
H           -8.39736474271099        0.10694034101486        1.52478801511960
C           -8.28128452207656       -1.46383842886083       -0.09764130179979
H           -8.59987511237092       -1.46903454407112       -1.14797116704311
C           -7.71753677271846       -2.84425984573365        0.25570097232645
C           -9.50607384370855       -1.19509657531941        0.78969664893192
H           -7.33652090463569       -2.83659322832845        1.27490292853243
H           -8.50642111910724       -3.58652141987193        0.17244286833535
H           -6.90735078355514       -3.09745704990438       -0.42356040285051
O           -9.30976896600924       -0.23338849618691        1.68289212028693
O          -10.53173526645918       -1.80986710231153        0.69265866525525
