42
 energy: -62.486133502570 gnorm: 0.000487528339 xtb: 6.7.1 (edcfbbe)
N           -2.57056747185373       -2.08294736782328        1.59932179782678
H           -2.56449759521844       -1.60796559566524        2.49618787637372
H           -1.71333127931687       -2.61724477298119        1.52036439545406
H           -4.42768018905123       -2.34881371961785        1.31618396503110
C           -2.69448580632139       -1.12538269940915        0.50278926906781
H           -2.10047192545356       -0.21122147986193        0.63910682211551
C           -2.29042736341229       -1.79168074623870       -0.81269672695063
C           -4.16756241855514       -0.73086199936672        0.41603318797523
H           -2.87915119853591       -2.69247533192689       -0.97215869478298
H           -2.46252912001375       -1.10460600238533       -1.63545766012551
H           -1.23632464150003       -2.06123069870313       -0.79379727418364
O           -5.00014696817844       -1.66225473713940        0.90742106067102
N           -4.43540197465558        0.37431754741013       -0.10868883276243
H           -7.16437589287918        0.50086529337301       -2.27460693164283
C           -5.70662249172413        1.02103839869737       -0.33040104150974
H           -5.86210596146234        1.65620588353711        0.55345200257166
C           -5.52045208982910        1.93318760667967       -1.55222269456210
C           -6.93041144590406        0.11884606797845       -0.40230641246038
H           -4.54805804332527        2.41328790531876       -1.43361932630357
H           -5.44664743603113        1.32272287629319       -2.45893838797140
C           -6.60283988289535        3.01241796119684       -1.70771255898402
O           -7.57508745917244       -0.03042718319616       -1.58099222860326
H           -7.59039159040370        2.57922561336742       -1.50977937591003
C           -6.38340930480198        4.15096487182709       -0.71396578359709
C           -6.59187953169983        3.56106611017796       -3.13443477961129
H           -5.42441121655913        4.63139342386130       -0.89509126144754
H           -7.16671347619743        4.89817913092698       -0.81727477650716
H           -6.39777908891855        3.78648472062246        0.30984248819832
H           -6.80569162370843        2.77981593822596       -3.86185628228833
H           -7.34111477826617        4.34090062388493       -3.24688097189415
H           -5.61793235368431        3.98669576515567       -3.36622553447516
N           -7.27960345360857       -0.47613323817372        0.64741973989312
H           -6.69727470008054       -1.20386451604083        2.23178649840018
C           -8.39037557676950       -1.39059366451390        0.73574506449285
H           -9.33518537518552       -0.88746947231697        0.49660353942399
C           -8.24095236484817       -2.62584113159236       -0.16147545218555
C           -8.43594463900267       -1.87940414608152        2.19170734648261
H           -7.27466524156748       -3.09231728656282        0.01930718530341
H           -9.03162902435342       -3.33400366574611        0.07106522978920
H           -8.30766951580428       -2.34044741014449       -1.20760587746328
O           -7.30108226446968       -1.68200941518805        2.84900416870703
O           -9.39330750737698       -2.42044510885916        2.67378210943109
