42
 energy: -62.486131747063 gnorm: 0.000429972343 xtb: 6.7.1 (edcfbbe)
N           -0.93279199368166       -1.24402608020243        0.45162924441546
H           -0.74392228179370       -0.76432053545848        1.32565233831896
H           -0.04590556574641       -1.42291770748823       -0.00420751904965
H           -2.50123569368827       -2.23753209705132        0.79073677966902
C           -1.80511117831826       -0.44027124928882       -0.40410202400153
H           -1.58502816895623        0.63490910730889       -0.38230225453448
C           -1.71994956456472       -0.94115844185642       -1.84637798291608
C           -3.23327444380809       -0.64923859113756        0.08247555823870
H           -1.94292387544365       -2.00541733373725       -1.88834313817954
H           -2.43680872110955       -0.40514805946829       -2.46104777031089
H           -0.72144123420351       -0.77731802205451       -2.24595013203407
O           -3.40041830059375       -1.84874209768045        0.70978012168305
N           -4.06809526639424        0.25309234305517       -0.11583199972282
H           -5.08852705855885       -2.02029829873886        0.75589619307818
C           -5.47963376946779        0.40063865814923        0.12315841451530
H           -5.57054923768475        0.73469628991425        1.17141402904662
C           -5.95620388872474        1.54809906851450       -0.78505898734384
C           -6.40423555536663       -0.80649253163427        0.03030406545109
H           -5.08701426743965        2.17400159150825       -0.99091049124215
H           -6.29452388002852        1.12146889680494       -1.72911001302080
C           -7.06737505238502        2.41212853403615       -0.17649577640116
O           -6.03272318990596       -1.99532699626746        0.51575685035938
H           -7.81011573307495        1.75262777333629        0.28136433141614
C           -6.51316099404968        3.34795978023891        0.89639508009796
C           -7.74655566727056        3.23382644724641       -1.27069905743186
H           -5.79814597457789        4.04183184582413        0.45915581966518
H           -7.31745217793740        3.92444160963365        1.34757272639643
H           -6.01082912420493        2.79576396766367        1.68705665967225
H           -8.19856261920690        2.59124930738342       -2.02177841224311
H           -8.52743198449168        3.85970553037163       -0.84539225505926
H           -7.02117392296973        3.87949309634699       -1.76153459453127
N           -7.56245495802834       -0.60928409603458       -0.43554036614003
H           -8.66895940480096        0.37098666847041       -1.46631833576938
C           -8.53603465877030       -1.67349512889586       -0.51816938024146
H           -8.08341219290695       -2.62225419662467       -0.83443346421314
C           -9.25164884377201       -1.89198296701590        0.81957350333892
C           -9.57978326672088       -1.24946062175990       -1.56173419256220
H           -9.67460046867859       -0.95346964119215        1.17277777750285
H          -10.05160050744430       -2.61433614400245        0.68380008004008
H           -8.54782511857197       -2.26570048236998        1.55903057797438
O           -9.45733667788229        0.01591569813109       -1.94414552052803
O          -10.43141477528065       -1.98667081303024       -1.97511130595791
