42
 energy: -62.486123750372 gnorm: 0.000704804583 xtb: 6.7.1 (edcfbbe)
N           -1.15007815165767       -0.59483453153250       -1.43962602233104
H           -0.34962476079395       -1.19989300364467       -1.57585034771298
H           -0.80220162363735        0.29930487734723       -1.10362385282313
H           -2.71509718679637       -0.06258068418505       -2.37766333499507
C           -2.07770619185390       -1.16411111368347       -0.46196002646781
H           -2.21540351403165       -2.22193817657185       -0.72122417425282
C           -1.62406072945210       -1.05695348805606        0.99094948949949
C           -3.42320596869190       -0.48511261964421       -0.67739125152706
H           -1.44966873517326       -0.01500063128674        1.25250446759790
H           -2.40114783907191       -1.44634715583214        1.63975551394368
H           -0.70601074392208       -1.62047010025745        1.14499976768234
O           -3.58567436846086        0.01487795649802       -1.93343263277692
N           -4.27669320480337       -0.49414092564217        0.23785209499041
H           -5.31211017568441       -0.93709963317666       -1.96199676951200
C           -5.57220821019287        0.14422224302911        0.20582480135230
H           -5.89790717570343        0.17669153146993        1.24977225282046
C           -5.54745057787367        1.57605334452501       -0.36828142693074
C           -6.58511751070471       -0.67924324225561       -0.55800564120742
H           -4.69698198959251        2.09679178903352        0.07887608428539
H           -5.37630375167398        1.52478182104296       -1.44589565041194
C           -6.82956546904021        2.37086817403396       -0.10133944245220
O           -6.19529446082529       -1.24940239706239       -1.71120196706602
H           -7.68842617029637        1.74881144175146       -0.37170115921725
C           -6.95687703177521        2.76458631380067        1.36804701740468
C           -6.84526943462013        3.62330035387137       -0.97719234742410
H           -6.12122298315931        3.39553459040926        1.66541853335102
H           -7.87838467542923        3.31889550136353        1.52712552667668
H           -6.97551977097855        1.88974021601338        2.01198912610950
H           -6.80798895013631        3.35978728539667       -2.03190804330325
H           -7.75300072026497        4.19504751108870       -0.80146819329610
H           -5.99060378321777        4.25790821620723       -0.75009130078532
N           -7.77314083444886       -0.70968620307635       -0.13626396181055
H           -9.08411999942738       -0.00202313048940        0.91375274910506
C           -8.81995263111565       -1.38664505971352       -0.86711117767578
H           -8.73234775556804       -1.22893187233278       -1.95017497725227
C           -8.82048980465254       -2.89338052548482       -0.58742637861580
C          -10.15680344263600       -0.80468229688590       -0.38568368955214
H           -8.87342199984215       -3.07248169268977        0.48450763871800
H           -9.68228480580238       -3.34698938441933       -1.06880365713487
H           -7.90954715229517       -3.34109546770479       -0.97697241174206
O          -10.04454364259126       -0.04329598654203        0.69659740878368
O          -11.20273333743667       -1.03288957872780       -0.92674754441958
