42
 energy: -62.486133510443 gnorm: 0.000479482536 xtb: 6.7.1 (edcfbbe)
N           -0.82383645497884       -0.25274904302709        0.33848320443145
H            0.09189382611378       -0.45894581815410       -0.04168119616003
H           -0.91000862973714       -0.75323915839183        1.21899252835926
H           -1.97106899114719        1.25019312300870        0.69260059002550
C           -1.88181444989371       -0.67778429991280       -0.57735057011012
H           -1.61147751183016       -0.31114160098712       -1.57693994242459
C           -2.10057688272408       -2.18869980004629       -0.63478488253173
C           -3.14561559435329        0.06530284864591       -0.16555139735703
H           -2.40765663113835       -2.55991664056016        0.34093802315279
H           -2.88033750339215       -2.42668810734665       -1.35061210737842
H           -1.18155218442303       -2.69018855469043       -0.93238085284872
O           -2.93454298968186        1.19446786212568        0.52440244901404
N           -4.27388700091439       -0.40212925691494       -0.46962216983250
H           -5.33794576578461       -1.34779024552624       -1.75428273803878
C           -5.50989957331444        0.28326017366383       -0.15087516851825
H           -5.58999124607339        0.46380845809277        0.92500486878955
C           -5.62111563021742        1.62508375754577       -0.90326780992738
C           -6.61780457278399       -0.64219795068584       -0.60444827417485
H           -4.78751864930886        2.25401932099038       -0.58688456562266
H           -5.50542626986998        1.42271146343337       -1.97224995570306
C           -6.93466018227746        2.37773793451439       -0.67288934399348
O           -6.30270177787984       -1.44208531798767       -1.63065525359100
H           -7.76833079636506        1.72865107002238       -0.95725018600589
C           -7.10817319394082        2.78161748449042        0.78866500275733
C           -6.96491520586722        3.61930367067459       -1.56346713319094
H           -6.27308554249308        3.39989041067676        1.11211729042831
H           -8.02630531096600        3.35050072258056        0.91163921257550
H           -7.16470447026797        1.90854263168010        1.43255384562846
H           -6.86518314398478        3.34748154747722       -2.61195227470910
H           -7.90466326657017        4.15090630718337       -1.43708243858005
H           -6.15122532418620        4.29360260403646       -1.30372273731052
N           -7.73012406339643       -0.63198163255246       -0.01093438124533
H           -8.95668485683500        0.33588110446231        0.91278441584339
C           -8.82099187641641       -1.48265274653924       -0.43503969106279
H           -8.85956048243195       -1.59380657086136       -1.52622629062856
C           -8.71849170015501       -2.87294924197437        0.20111414832130
C          -10.12523480535624       -0.82507691060564        0.03959184341476
H           -8.62853979513753       -2.77977037444718        1.28153593910155
H           -9.61285064038187       -3.44256855991388       -0.03508414251880
H           -7.84448513707122       -3.39235880908707       -0.18397162644500
O           -9.93326420693260        0.21572860618828        0.84132249834199
O          -11.21183277594926       -1.22599631844385       -0.27360372647062
