42
 energy: -62.486133506698 gnorm: 0.000481316161 xtb: 6.7.1 (edcfbbe)
N           -1.56122581872141       -1.11580171575618       -0.28586486133156
H           -1.00281042630800       -1.96058608213844       -0.30362586670726
H           -1.08954876747216       -0.45004501143844        0.32075464353001
H           -2.45948838301895        0.02909234838889       -1.50043894522318
C           -2.90440319355914       -1.38812271286643        0.22870336326558
H           -3.27049645374482       -2.29046835572847       -0.27710014186056
C           -2.97553626518844       -1.59940143993739        1.73798913916857
C           -3.80953151397655       -0.24499807817029       -0.23095238810658
H           -2.59676220315090       -0.72150503606426        2.25794255378535
H           -4.00715009574826       -1.75540919891549        2.03281868095640
H           -2.38468915616092       -2.46633587459648        2.02679423393200
O           -3.34092540130514        0.41360922728243       -1.30924838832908
N           -4.87772860314889       -0.05974924693409        0.39363226263232
H           -8.29271488862128        1.62939826630189        0.01385184450086
C           -5.93693701976465        0.88228829767363        0.14780812767717
H           -6.02466738474367        1.47361657920917        1.07117870223136
C           -5.72047567389362        1.82347813622262       -1.05787540568584
C           -7.19780322842619        0.04480810111265        0.03321659622392
H           -4.72745364169599        2.25926862546866       -0.93601335912006
H           -5.69512570525768        1.20846685995276       -1.95979610382051
C           -6.71000298965275        2.97700922919591       -1.27236165882650
O           -8.39192385973777        0.67228410872438       -0.05286612685048
H           -7.69222241323504        2.58368872570019       -1.55944997643248
C           -6.85162693565077        3.86691160063519       -0.03675597137024
C           -6.21568107616475        3.82189895400859       -2.44851113221010
H           -5.87862361361591        4.25918556591005        0.25187273937115
H           -7.50528838316462        4.70898156516330       -0.25528145087935
H           -7.26723050782415        3.33781207789916        0.81976938389366
H           -6.11472279332364        3.21160997059857       -3.34263439900272
H           -6.91533204499587        4.62754361066314       -2.66001187360485
H           -5.24602090482868        4.25931894233690       -2.22172464334475
N           -7.09396322446778       -1.20380487684682        0.11990605781495
H           -6.05324679763573       -2.53800186205299        0.63479844367681
C           -8.20968601577462       -2.11246401284192        0.09620738033740
H           -9.02640968668442       -1.77811091668132        0.74993456057150
C           -8.76117121336204       -2.31389471904193       -1.31860374037410
C           -7.67594513933851       -3.45807691394363        0.62089236733844
H           -7.95282066148911       -2.58422514754202       -1.99500295851813
H           -9.49696996241373       -3.11298179505865       -1.30538834886364
H           -9.22703978326140       -1.39679347735885       -1.67041874333008
O           -6.36843090023376       -3.45438126614937        0.84519313047883
O           -8.37635852343834       -4.41713871157628        0.79559715956484
