42
 energy: -62.486133517260 gnorm: 0.000479475313 xtb: 6.7.1 (edcfbbe)
N           -2.16614022137735       -2.42649690431843       -0.78444386652564
H           -1.22364265357568       -2.78918741382046       -0.70726508278596
H           -2.39364959948710       -2.37352078273639       -1.77400020780841
H           -3.92661981793471       -2.67186030471713       -0.10436306652071
C           -2.26568395330850       -1.09608635348224       -0.18597590073194
H           -1.79973634192773       -1.15065051653881        0.80639945041778
C           -1.60148622115976        0.01461493950079       -0.99528984067222
C           -3.75183678532570       -0.81244761401757        0.03298222554760
H           -2.03878078062539        0.06244423740202       -1.99017175810822
H           -1.76852119047425        0.96612425621686       -0.50341723514891
H           -0.53193426700427       -0.16556993691600       -1.08491163178139
O           -4.51041134564300       -1.91665873891583        0.11672333234387
N           -4.10661325553845        0.38011255388380        0.18868252365363
H           -6.55658036178481        0.47322600457640        2.43138451395979
C           -5.44064831118758        0.90666321025731        0.30357985958601
H           -5.39209904158378        1.62075412410719        1.13923776117177
C           -5.73474466919746        1.67895322907574       -0.99509210943566
C           -6.55278799860842       -0.08533982705307        0.56037000573345
H           -4.86979466369473        2.30546659688112       -1.21703602371425
H           -5.83920897969615        0.93399443212392       -1.78410068910322
C           -7.00274870157620        2.53637902855493       -0.93671984248081
O           -7.06635596454238       -0.10088896161488        1.84729439979947
H           -7.82784504348251        1.91952088049577       -0.56405080356591
C           -6.83430121226108        3.74555610767351       -0.01880129705199
C           -7.35988503834880        3.00343878777841       -2.34643067396794
H           -6.00691056445330        4.36494121243580       -0.35879917111414
H           -7.73907475270223        4.34898657353320       -0.02412689941839
H           -6.63913114280204        3.44770348717037        1.00862161934047
H           -7.53706418612597        2.15035979149246       -2.99614000914578
H           -8.26021213462503        3.61286083846092       -2.32946195173046
H           -6.54992250106672        3.59687295080453       -2.76572037534234
N           -6.93724526567054       -0.83472151271778       -0.36189507592939
H           -8.80241338461101       -0.30729814336114        1.32712833991203
C           -7.94078642872083       -1.86270093949910       -0.29358436263313
H           -7.86195127093159       -2.40624532501544       -1.24216703594909
C           -7.76422698359527       -2.85051223067842        0.86746554215638
C           -9.35773543845299       -1.27517146332572       -0.23730044508175
H           -7.95940495122457       -2.37910959994597        1.82829035696814
H           -8.44625173934167       -3.68720391757028        0.73908803759115
H           -6.74014402894112       -3.21572329062006        0.86391999733641
O           -9.59026497495122       -0.42509976529599        0.76403419884334
O          -10.21139507241785       -1.56850545188905       -1.02500171326217
