42
 energy: -62.486133509266 gnorm: 0.000479916978 xtb: 6.7.1 (edcfbbe)
N           -0.79189284394951       -0.28736665200622       -0.62469663688368
H           -0.01965204569658       -0.86730963786019       -0.92977186325739
H           -0.56217801019442        0.06589697850999        0.30024515536807
H           -1.90829584183724        1.12056871322850       -1.27103803121933
C           -2.03347811660611       -1.05712063360686       -0.56456601938395
H           -2.11322459181347       -1.61168239868004       -1.50972827077696
C           -2.12440194464976       -2.03723405158924        0.60172214572855
C           -3.18415909156858       -0.05088715426439       -0.54802832702530
H           -2.00837396478105       -1.50729865266504        1.54472993605430
H           -3.09823061209754       -2.51462537687139        0.59877534511687
H           -1.34876238653898       -2.79614415356658        0.52208079047169
O           -2.86855215609636        1.14430884307902       -1.07806441880216
N           -4.28552625951551       -0.41820344545712       -0.07278200817575
H           -5.32580793321657       -1.04474806138375       -1.94847100892441
C           -5.52380078832971        0.31667080678179        0.00575127689806
H           -5.75057384209220        0.40702960602121        1.07270106526319
C           -5.57296518254360        1.70765182384748       -0.65453426698468
C           -6.58694003159376       -0.56946699387148       -0.61152409777954
H           -4.78725638538056        2.32393282320803       -0.21583697242378
H           -5.34957460945863        1.59795821487859       -1.71912003643021
C           -6.91824202522176        2.42592385475425       -0.49955442920574
O           -6.26267936826476       -1.19281312284510       -1.75923846825162
H           -7.71514398950358        1.77311266485472       -0.86937102953521
C           -7.21312037230853        2.77286761942140        0.95741919671697
C           -6.90863738262923        3.69927288887222       -1.34454758236406
H           -6.42863377374329        3.41001930124335        1.36118043059334
H           -8.15825089441086        3.30508713538849        1.02970164089148
H           -7.28485961427590        1.87818457656666        1.56953162352964
H           -6.74133736326331        3.46700550202849       -2.39394258990432
H           -7.85995612012907        4.21832413331734       -1.25771010080261
H           -6.11918293279427        4.37004879882423       -1.01158899167866
N           -7.70992221598129       -0.67338740123729       -0.05223325855995
H           -8.97349324199840        0.11298974925173        0.99635127469699
C           -8.77565054375267       -1.46889834610936       -0.61939151118340
H           -8.78651288923103       -1.43113925029806       -1.71602413984921
C           -8.66609511285087       -2.93088670009190       -0.17335569402283
C          -10.10096063860135       -0.89913558433423       -0.09125176995259
H           -8.60501820646433       -2.98315910030355        0.91166264445657
H           -9.54404172577610       -3.47560033677940       -0.50894623395568
H           -7.77358955201643       -3.38183595553261       -0.59994653459820
O           -9.94491692722194       -0.00312258467495        0.87585917529775
O          -11.17229973039036       -1.24681423796482       -0.50351239233494
