42
 energy: -62.486133513418 gnorm: 0.000480167584 xtb: 6.7.1 (edcfbbe)
N           -0.78058878472673       -0.22256456515152        0.26454032356444
H            0.13847745515806       -0.37897041802080       -0.13132430093671
H           -0.86841210102204       -0.82196858291389        1.08066167854275
H           -1.95928200642966        1.27271356519791        0.72798448603615
C           -1.82942678415134       -0.54217447604294       -0.70215695799657
H           -1.57316128460710       -0.02432677020040       -1.63660327288189
C           -2.00810492058649       -2.03191805610270       -0.98909209272036
C           -3.10726363446688        0.10219714665558       -0.18769517909716
H           -2.31943120182555       -2.55602607279751       -0.08794216406181
H           -2.76563795700322       -2.17300839304547       -1.75292795272128
H           -1.07141523988633       -2.46013552665884       -1.34079402988802
O           -2.92104605517225        1.19111277873029        0.57164442848177
N           -4.22667920269110       -0.38736066782581       -0.48860116454789
H           -5.12701048974198       -1.91482593145461       -0.82653173144754
C           -5.47460964202121        0.22005305072077       -0.06631471802410
H           -5.45553231474462        0.44882681285891        1.00617152809939
C           -5.67036606738982        1.52876681356564       -0.85812026483542
C           -6.55075000330668       -0.82000535265012       -0.33472662093081
H           -4.83127624226890        2.17716748715133       -0.59570952138975
H           -5.58671908255775        1.28513372890188       -1.92052919168878
C           -6.97232584555699        2.29757785280231       -0.62681650928852
O           -6.09828879170752       -2.01794167798469       -0.72486012572962
H           -7.79932245227774        1.70734787672353       -1.02638219606441
C           -7.22229187986983        2.56870460636451        0.85360756951124
C           -6.91061009591586        3.61558387129249       -1.39858411426089
H           -6.37894080002456        3.10114595908634        1.28934804413220
H           -8.11349533345250        3.17933706749498        0.97652821084022
H           -7.36765300878344        1.63954659566075        1.39785978089876
H           -6.72864781331017        3.43587172047027       -2.45567499621929
H           -7.85027935827434        4.15316145316960       -1.30078342428298
H           -6.11183012158817        4.24727152410327       -1.01460385472866
N           -7.77436998836174       -0.52836078396090       -0.23278942998841
H           -9.15787411043847        0.62343374465733        0.18119407277468
C           -8.79755312505204       -1.51441654126095       -0.51048526743609
H           -8.62685742570578       -2.01131721357385       -1.47374953384442
C           -8.88672463363453       -2.58494373145919        0.58450710058577
C          -10.14358684532689       -0.78056969424380       -0.55696647728490
H           -9.01971631119359       -2.11306929120315        1.55639424867679
H           -9.73578551351312       -3.23259048196612        0.38436350521262
H           -7.97545995959790       -3.17697723441626        0.59792632434221
O          -10.09779158287102        0.44668185973011       -0.05138665153386
O          -11.14855070469138       -1.28018992795986       -0.98164455873106
