42
 energy: -62.486133512997 gnorm: 0.000479952182 xtb: 6.7.1 (edcfbbe)
N           -1.96803574763219       -1.50548510058879       -0.79370061191700
H           -1.32255841315618       -2.26572898455968       -0.61688858462420
H           -1.41602449375667       -0.66259995639931       -0.93145467301830
H           -3.51925417520890       -1.12158432654874       -1.87139000742003
C           -2.88028862900081       -1.32022953732849        0.33562306960172
H           -3.26124685322349       -2.31151230770442        0.61312123037202
C           -2.25784091096375       -0.65912516522796        1.56227841302060
C           -4.07450961533995       -0.53073916556647       -0.17466524256611
H           -1.83776452649552        0.30828211326864        1.29395164276064
H           -3.02662431384028       -0.50239915685326        2.31119151814454
H           -1.46973506109843       -1.28592605728985        1.97443671813371
O           -4.26050223852303       -0.59444599400964       -1.50997182194562
N           -4.81131648596050        0.08373499471539        0.63673554684371
H           -6.52379997110595        0.60462039942973       -2.24212993497853
C           -5.98269860561007        0.81539870861895        0.18265129967227
H           -6.48321560924762        1.12446158887785        1.10753440635030
C           -5.59940629213194        2.05908661232334       -0.62683057631650
C           -6.91979796203259       -0.14682607691409       -0.52558819509992
H           -4.84079789708475        2.59561653237296       -0.05187401537196
H           -5.12130206227458        1.75566488720225       -1.56404592148379
C           -6.77757095558731        3.00288117583945       -0.90844339756791
O           -7.10923048276597       -0.05749051305582       -1.85372878291629
H           -7.64827047411852        2.41718561292328       -1.22488238538184
C           -7.16489203870467        3.78791430330940        0.34269936328713
C           -6.40913427620761        3.96876390819438       -2.03457325825925
H           -6.32827901575277        4.39447533817222        0.68344308882913
H           -8.00185761234494        4.44831793326909        0.12823953372454
H           -7.45851335465622        3.12140409936205        1.14927542313392
H           -6.18317923579839        3.43404619356065       -2.95549855305499
H           -7.23185711442668        4.65124939425909       -2.23312048820706
H           -5.53671881504303        4.55687293984629       -1.75696332317211
N           -7.44850639107410       -1.05051148726660        0.17668687858114
H           -7.87913474393052       -1.71827261895176        1.79830013831561
C           -8.29240137653513       -2.07249168167003       -0.39864773193911
H           -9.02903572801707       -1.65200707621618       -1.09469129938332
C           -7.46991674510566       -3.13825147932536       -1.13210301460493
C           -9.03531048523941       -2.74971245955250        0.76283774078136
H           -6.71089035193651       -3.54171877697105       -0.46427249319654
H           -8.12708064511387       -3.94164683796790       -1.45272191375327
H           -6.98286580642532       -2.69872181666199       -1.99890721597803
O           -8.58235222725296       -2.39289989741636        1.95775041069569
O           -9.92251163626448       -3.54108465537354        0.59938648411491
