42
 energy: -62.486143125441 gnorm: 0.000732952284 xtb: 6.7.1 (edcfbbe)
N           -1.67694567856139       -1.98259416016873       -1.14376960138257
H           -0.73191840855709       -2.32254190868004       -1.01597132498250
H           -1.75726755089008       -1.65265450544389       -2.10171162706546
H           -3.48886296562054       -2.51167570366144       -0.86933079962674
C           -1.97511007909173       -0.89215200441406       -0.21753598201444
H           -1.61801034284455       -1.19909994508451        0.77433257577970
C           -1.34510616383499        0.44904763727049       -0.58564728059667
C           -3.49379082388120       -0.78363937295514       -0.12484080541709
H           -1.66361707132018        0.74921403546729       -1.58186701486041
H           -1.67178599534982        1.20553090279828        0.11952640745392
H           -0.25944831518207        0.37851939526919       -0.56562262614761
O           -4.15698395271595       -1.88646339338004       -0.52047591109747
N           -4.00293617211176        0.28221957336194        0.30089844578787
H           -5.19693357278893       -1.47655652351507        1.78704142157392
C           -5.41871026893318        0.53595093842593        0.44926331257369
H           -5.52040350030915        0.99528661027776        1.44440617060297
C           -5.82189001954770        1.56712637014145       -0.61559099035875
C           -6.31198102603773       -0.68695554138967        0.43823234066149
H           -4.99149829812244        2.26777506686310       -0.72159844834545
H           -5.94089521086483        1.03714756929315       -1.56132782676452
C           -7.10282788710555        2.34129532735620       -0.28494278108985
O           -6.05073929746123       -1.63486321739484        1.36639975021015
H           -7.84776633092307        1.63495451081597        0.09181676704784
C           -6.84811348175371        3.40487506591281        0.78117675381341
C           -7.65015377287747        2.99904059092519       -1.55054542973901
H           -6.12423361191169        4.13406122894540        0.42305491382288
H           -7.77088749668381        3.92824702315622        1.02045858232825
H           -6.46416756784404        2.96448404457778        1.69792991854276
H           -7.89907477133118        2.25347987618897       -2.30163794613116
H           -8.54962433559273        3.56656249563768       -1.32409610065485
H           -6.91347412294971        3.68034147902787       -1.97143462350844
N           -7.32301204297147       -0.72801603523984       -0.30882460171631
H           -8.16250018341339       -0.13650619130985       -1.78120171110096
C           -8.23153829578524       -1.85031738204208       -0.31560493378238
H           -7.69778563113158       -2.80720037929924       -0.26138195396287
C           -9.23397515829231       -1.77552765780588        0.84115550429608
C           -9.01078436264304       -1.78624856264648       -1.63810663696262
H           -9.74353543180432       -0.81383769898641        0.83069377786357
H           -9.96859673345612       -2.56799297315129        0.72987084336367
H           -8.71503707546570       -1.89268817227448        1.78912654967559
O           -8.81847800005315       -0.65552156778885       -2.30705864392031
O           -9.73579103961913       -2.66410340444668       -2.01624117415246
