42
 energy: -62.486133509925 gnorm: 0.000480217566 xtb: 6.7.1 (edcfbbe)
N           -1.63350631058990       -0.90154103628484        1.57374755489009
H           -0.73495959099522       -1.34765736516853        1.43137256856132
H           -2.12114338883179       -1.42695786626351        2.29469588564279
H           -2.41133282914860        0.86584080930998        1.79725170057338
C           -2.42215786382583       -0.91883484756872        0.34103184138035
H           -1.77689758061739       -0.52831243119136       -0.45770781372193
C           -2.95217898259973       -2.29087741609473       -0.06502420319583
C           -3.54659516148625        0.08793130018352        0.52194570694724
H           -3.58579410035478       -2.69969241509154        0.71792782042356
H           -3.54562336981903       -2.19557968524810       -0.96701242321781
H           -2.12682329573333       -2.97620764956230       -0.24723217495181
O           -3.26930798941997        1.08787693603876        1.38466466982792
N           -4.61825403525716       -0.04920862650153       -0.11683265578735
H           -7.77699261678551        1.75431022144889        0.94857407972275
C           -5.68726551819529        0.91206923818250       -0.00498795290686
H           -5.51897794071877        1.62727537519986        0.81607277350903
C           -5.76080048053704        1.65687628645031       -1.35467846098130
C           -6.96293189379598        0.14888778623590        0.25851025752176
H           -4.78557293430483        2.11975410034142       -1.52261743821388
H           -5.90329176185607        0.89473872264568       -2.12272335227090
C           -6.85059902305423        2.72574356498017       -1.48334969870538
O           -8.01007342412653        0.83300937459631        0.78009707315953
H           -7.82450382039135        2.28289626742753       -1.24844183559323
C           -6.59536774826009        3.91498939795948       -0.55732382655521
C           -6.90404231618776        3.21140712890139       -2.93189282147015
H           -5.65135833517719        4.39082491102224       -0.81461540446408
H           -7.38827749008612        4.65249157203595       -0.66208694499670
H           -6.54512411974948        3.62150956250060        0.48957846165664
H           -7.12599831248174        2.38733612638217       -3.60542083992278
H           -7.67542363807567        3.96875689940800       -3.05082306158160
H           -5.94962542000348        3.64507302627127       -3.22234698779297
N           -6.99437743618100       -1.08394874071142        0.02947468402588
H           -6.00397607557687       -2.54744381850763       -0.18588618899988
C           -8.13102704756425       -1.92719188376038        0.28768336970157
H           -8.63618593599791       -1.67314433580003        1.22883918750714
C           -9.15043107746608       -1.86733335468212       -0.85442934116622
C           -7.58394815648400       -3.36283005933967        0.38601446879444
H           -8.65606676478228       -2.07019715670303       -1.80213352013158
H           -9.92154599928154       -2.61396312181888       -0.68680529944286
H           -9.60468363528665       -0.88030658032165       -0.89489267928632
O           -6.30989851138966       -3.46481664909680        0.03435218643196
O           -8.25324932537520       -4.29557924150744        0.73636553551397
