42
 energy: -62.486133514785 gnorm: 0.000480245121 xtb: 6.7.1 (edcfbbe)
N           -0.97956858522146       -0.49408674627888        0.63817317798958
H           -0.03750567830945       -0.71846828975898        0.34170491926365
H           -1.20854482446864       -1.10573537306792        1.41705907122546
H           -2.09505273895706        1.04054916721735        1.06963496289413
C           -1.93439805964939       -0.70126630381970       -0.44935141181048
H           -1.52929308471550       -0.19296599732684       -1.33498469040602
C           -2.20714320830758       -2.16522878905585       -0.78879795253714
C           -3.20649861788542        0.03762309789927       -0.06286916853978
H           -2.63864935502806       -2.67475539144585        0.06989216928066
H           -2.91065474988747       -2.22962341176680       -1.61174717086581
H           -1.28263243705014       -2.66506947715349       -1.07154423592503
O           -3.03211380385018        1.05710570469728        0.79036179803588
N           -4.31492987914081       -0.32396208970248       -0.53677171654955
H           -5.49323397954679       -1.05915218226011       -2.00367602915457
C           -5.53508108541354        0.38875607931613       -0.21318583452065
H           -5.60953046753193        0.58696323380459        0.86040945707174
C           -5.60656290829299        1.71790268234425       -0.98860850847973
C           -6.65950457546433       -0.52024878334032       -0.64936889303540
H           -4.76913990610195        2.33853989273351       -0.66410651113266
H           -5.47116686408467        1.49914631840123       -2.05207883610088
C           -6.91719015995685        2.48687843539855       -0.79618074812123
O           -6.43468155096552       -1.18649049051582       -1.79078078194921
H           -7.75266346275272        1.82890225925620       -1.05684229217617
C           -7.09532669744303        2.94882108993988        0.64736741615151
C           -6.93645046283852        3.69111366113340       -1.73686966276151
H           -6.25313186399766        3.56590691421182        0.95391363602759
H           -8.00516715859654        3.53632726540333        0.74172605604066
H           -7.17110657931704        2.10143378357881        1.32258095213775
H           -6.84201732519840        3.37570667626456       -2.77366819521214
H           -7.86943208210814        4.23889248164396       -1.63100783651324
H           -6.11441721382509        4.36576674217669       -1.50606346337011
N           -7.68975586866458       -0.64390218458811        0.06541641668375
H           -8.80600421461302        0.08024934725265        1.28643762627225
C           -8.78319795945562       -1.50789527914658       -0.32584219115571
H           -8.99325411277794       -1.44140662645075       -1.40097641120998
C           -8.49942390730430       -2.97060774201375        0.03114187982881
C          -10.02798129801811       -1.04650038125356        0.44675163043006
H           -8.23616583954913       -3.05065568653578        1.08388268304269
H           -9.38857527597038       -3.56463064070948       -0.16050003747593
H           -7.67516854105547       -3.34529082517389       -0.57046454920669
O           -9.77115885943230       -0.11292558435804        1.35502608385055
O          -11.12271601745816       -1.49774240195294        0.25374218873613
