42
 energy: -62.486132226791 gnorm: 0.000634432514 xtb: 6.7.1 (edcfbbe)
N           -1.22709356503777       -0.42326163346593       -1.73903598724795
H           -0.50840729742087       -1.05117902278442       -2.07675092443069
H           -0.76371759287874        0.35675061634991       -1.28090868206370
H           -2.79216951715226        0.45399817895858       -2.35382037947739
C           -2.11795397063478       -1.09685006646110       -0.79665806642508
H           -2.36314703137725       -2.07857622889029       -1.22179013078140
C           -1.53116490800545       -1.28271428103594        0.60146438648280
C           -3.42195430840672       -0.29982317899149       -0.75966451405523
H           -1.27000724934364       -0.31599834987430        1.02766988722460
H           -2.26264905504091       -1.75351811324075        1.24922478781937
H           -0.63821709565609       -1.90326837002712        0.55860825878148
O           -3.59914942173989        0.51958806549038       -1.80037083944322
N           -4.20819553219684       -0.49074767941029        0.20409411967211
H           -5.24418790423955       -2.18992788483111        0.58642196950802
C           -5.51455884392976        0.12304661564779        0.36254552651059
H           -5.62010224383265        0.25130053541400        1.45138575502240
C           -5.76521723153502        1.46789379213347       -0.32361045825858
C           -6.51784265914114       -0.94415835025138       -0.03563595861810
H           -4.85302991076790        2.06378476355282       -0.25982474058132
H           -5.97430687735449        1.28871493046404       -1.37804648219286
C           -6.91830853666038        2.25791737692656        0.30923196952929
O           -6.16087141385628       -2.20769566558370        0.26193837737045
H           -7.73792529858449        1.56610619898190        0.52269098716893
C           -6.48418341587185        2.92267988969549        1.61465595688083
C           -7.41455559946203        3.32140343550102       -0.66878893618539
H           -5.68992387125808        3.64282228350829        1.42692621412886
H           -7.32133369887244        3.44930774141010        2.06700135674285
H           -6.11971175145869        2.19158578966433        2.33246936507497
H           -7.77952887368733        2.86801376874508       -1.58690788973739
H           -8.22537365583291        3.89588778810451       -0.22713748753556
H           -6.60795449812325        4.00695949298923       -0.92107849509801
N           -7.59753547156807       -0.63129646444990       -0.59933841037042
H           -8.53829315601144        0.57614662822572       -1.56079023237950
C           -8.57190225824858       -1.61989007891816       -0.99948575797405
H           -8.09940030641882       -2.50484728293050       -1.44488289329274
C           -9.44163405426233       -2.06646026901596        0.18041027764943
C           -9.47701245565218       -0.95861653254616       -2.05060071728083
H           -9.88526069343417       -1.19859918983724        0.66443014803302
H          -10.23373025485116       -2.71457473012795       -0.18381611179425
H           -8.83534502103818       -2.60578856894758        0.90386298792736
O           -9.27553183624976        0.34703102466706       -2.17597968662748
O          -10.29780293050231       -1.56517275280123       -2.68117340095759
