42
 energy: -62.486133505442 gnorm: 0.000480888971 xtb: 6.7.1 (edcfbbe)
N           -2.76292205458857       -1.33337273644405        2.05848574143531
H           -1.83623502888439       -1.70606754774601        2.22614448275373
H           -3.42297117622648       -2.10129338546079        2.16175842308863
H           -3.95710210665919        0.09063680080847        2.54004770906948
C           -2.86346003649264       -0.77718748618611        0.70999554061699
H           -2.02475816299036       -0.07919030221519        0.58176742670742
C           -2.83667487557967       -1.81093473723133       -0.41392955889288
C           -4.14005189188252        0.04684000180961        0.67469154198775
H           -3.60602245063189       -2.56116891261501       -0.24766373019617
H           -3.03386374981347       -1.31902401229649       -1.36001819107710
H           -1.86690124157393       -2.30268899387306       -0.45427239964463
O           -4.55546960266801        0.48985992174214        1.87532959744606
N           -4.72897220320220        0.26236427704459       -0.41631331494578
H           -8.34963985114998        1.27738148318161       -0.94862996225026
C           -5.96977673497494        0.99940285695342       -0.42804177561911
H           -6.01439000555266        1.71476927336739        0.40917048652222
C           -6.10226134651778        1.74236064070312       -1.77066388266710
C           -7.10512370568917        0.01687801349092       -0.20850733223146
H           -5.10545822767788        1.78577936724242       -2.21134340280919
H           -6.72055235958562        1.15446913650166       -2.45449388799039
C           -6.65691197372331        3.16891607718355       -1.64744374863829
O           -8.35128621101846        0.39488968630051       -0.55578401211610
H           -7.51267942921891        3.17853808045214       -0.95776616437764
C           -5.59442667854457        4.11298235052761       -1.08906253812106
C           -7.13638031178030        3.66459805821068       -3.01075121439039
H           -4.75699155736981        4.18387238724332       -1.77933906865958
H           -6.00676383688540        5.10894803832934       -0.94407288086172
H           -5.21801937725621        3.75638777851665       -0.13341447634173
H           -7.93338320018427        3.03388708488389       -3.40008578887334
H           -7.51275074249906        4.68204465030746       -2.93554190123443
H           -6.31480242262945        3.65501338959084       -3.72310899069803
N           -6.83774177722907       -1.08905868427144        0.32357010798177
H           -5.61832482574893       -2.01366316824881        1.08826896688503
C           -7.78972451748426       -2.12135598941423        0.64111373320144
H           -8.62780823003936       -1.73306351661114        1.23400360898835
C           -8.34197838671952       -2.81797178635490       -0.60572199892948
C           -7.01972507871044       -3.15001039502883        1.49144346013813
H           -7.52053738240348       -3.15035162334288       -1.23742971897705
H           -8.93085692475088       -3.67928775485122       -0.30313676194596
H           -8.96705940748784       -2.13041604654243       -1.16951116000986
O           -5.72406992294449       -2.86759322053384        1.59215651183065
O           -7.53136223417507       -4.10914458333529        1.99703506401799
