42
 energy: -62.486133514081 gnorm: 0.000480140689 xtb: 6.7.1 (edcfbbe)
N           -1.08422760285108       -1.05071442184002        0.36960053544598
H           -0.17995247791976       -1.25645310216656       -0.03769799735418
H           -1.36090487726435       -1.85892676868833        0.92075232140151
H           -1.99389651550153        0.35289688410831        1.32306078891092
C           -2.08115799977498       -0.79918642217367       -0.67149983655791
H           -1.63059401655573       -0.10624348366193       -1.39359292346547
C           -2.56976758382127       -2.04453764884246       -1.40733691749882
C           -3.23806359998707       -0.05388115679524       -0.02271532340430
H           -2.97148972806888       -2.76489588554076       -0.69711898664654
H           -3.36210819868446       -1.76408629030152       -2.09277725199529
H           -1.75426809478129       -2.50772980926830       -1.95914424536978
O           -2.92769185939830        0.57385201941186        1.13417346290712
N           -4.36398024978854       -0.05223336003018       -0.57656648441728
H           -6.23630223024722       -0.18597910200854        2.08388807694916
C           -5.47020992197409        0.70192517498628       -0.03265790078671
H           -5.20801288122253        1.17391588908131        0.92764075644737
C           -5.86805006924665        1.77188991441056       -1.05817226751146
C           -6.60377394456172       -0.27581838434431        0.17105868500967
H           -5.00556085046423        2.41896001534622       -1.23016322440812
H           -6.09567760979597        1.24183021440232       -1.98232691740226
C           -7.07505753198140        2.61729528536183       -0.64052683234846
O           -6.87154914786265       -0.60560238833081        1.48999866731385
H           -7.89669919728847        1.94465595285520       -0.37199458250861
C           -6.76049301543948        3.51582406752007        0.55444915791975
C           -7.52680359332372        3.46910159428452       -1.82505015890363
H           -5.91359949763652        4.16155543104317        0.33009832741877
H           -7.61761200618633        4.14362227694780        0.78694333683586
H           -6.52310304121653        2.93527552281979        1.44285498056086
H           -7.79232849519752        2.83682057486139       -2.66816290757196
H           -8.39590164407329        4.06481054276840       -1.55623450642037
H           -6.73001648946805        4.14260872604643       -2.13424065881335
N           -7.20169381084330       -0.75550362499175       -0.81311093055917
H           -8.68027361793395       -0.63050346090560        1.29680441335390
C           -8.25335007131834       -1.73750242470728       -0.80581386239550
H           -8.40108200957429       -2.01109922229741       -1.85686551841039
C           -7.93629599172615       -3.00355518522168        0.00208677188566
C           -9.58960662450269       -1.16106401746912       -0.31249885160603
H           -7.84154777935413       -2.78666195393651        1.06386652025812
H           -8.73006009720237       -3.73265881889201       -0.14018178096491
H           -6.99826814788160       -3.42637119489857       -0.35063162059049
O           -9.56748297438679       -0.59289908246041        0.89354162683106
O          -10.59767615838813       -1.23475866663062       -0.95480085230647
