42
 energy: -62.486123755099 gnorm: 0.000704893911 xtb: 6.7.1 (edcfbbe)
N           -0.80117715005858       -0.23401321697113        0.26690193108519
H            0.10133204799524       -0.47763563663355       -0.12263957418683
H           -0.87286544483679       -0.68208807999498        1.17642913734031
H           -1.92649082116016        1.30991256410202        0.55299933198691
C           -1.88713396663359       -0.69305188141739       -0.59742511787199
H           -1.64275570486315       -0.37301901898519       -1.61944235288483
C           -2.11605825684060       -2.20321374130517       -0.58249912608239
C           -3.13441529846707        0.07769800242360       -0.18546854149990
H           -2.40534690806671       -2.52839621958144        0.41433737927609
H           -2.91159631236043       -2.46752137217734       -1.27071389191715
H           -1.20660179019164       -2.72396704439461       -0.87625903211199
O           -2.89474328634222        1.24751330336614        0.42338409254867
N           -4.27083871156101       -0.41104081207700       -0.41350012908538
H           -5.31370445831658       -1.36020952277426       -1.70930624707388
C           -5.50816781184732        0.27967295198636       -0.11485793385393
H           -5.60344904196088        0.45659225207474        0.96021892182557
C           -5.61546677989434        1.62259402648802       -0.86665820229263
C           -6.61128672512963       -0.64392353629928       -0.58627758606643
H           -4.78939710555992        2.25589075965557       -0.54053279311228
H           -5.48607319680875        1.42108848317145       -1.93431215932806
C           -6.93480079406513        2.37017475807905       -0.65293942145073
O           -6.28157811939367       -1.44729359772985       -1.60517756742047
H           -7.76294826701827        1.71814348236337       -0.94625864935430
C           -7.12705438492805        2.77567875486553        0.80580537161010
C           -6.95880334641406        3.61012083021454       -1.54594738283655
H           -6.29979220511373        3.40022317174694        1.13723821555519
H           -8.05025072913829        3.33862787239697        0.91761316031354
H           -7.18485040524604        1.90339041397354        1.45068097782385
H           -6.84881897874657        3.33637519244964       -2.59292463845336
H           -7.90066854850505        4.14015454612117       -1.42953519759362
H           -6.14881280760616        4.28639865607205       -1.27997819491693
N           -7.73335969496613       -0.62941184452179       -0.01166015718799
H           -8.97299159309402        0.33863309223246        0.89954461074855
C           -8.81939928903354       -1.47745885103531       -0.45289470176931
H           -8.84137360308212       -1.58799330188470       -1.54458784180077
C           -8.72924073980677       -2.86838294088087        0.18371596258790
C          -10.12921019442588       -0.81741907770911        0.00192746392363
H           -8.65901702106229       -2.77642643183353        1.26564246401816
H           -9.61899112501687       -3.43788852194500       -0.06947930998824
H           -7.84822932282954       -3.38727072913414       -0.18580429623256
O           -9.94801467571224        0.21969037889329        0.81096253845490
O          -11.21174869209804       -1.21297396988479       -0.33138650450894
