42
 energy: -62.486133509845 gnorm: 0.000480155716 xtb: 6.7.1 (edcfbbe)
N           -2.13110258064709       -1.27545866739010        1.74735315113264
H           -1.21529537299901       -1.70721251195535        1.70917622820223
H           -2.76951271176242       -1.95655963235076        2.15105215819608
H           -3.01696687261199        0.38294740100730        2.25486579601031
C           -2.59114859582932       -0.91855451502345        0.40511274203759
H           -1.79599771239623       -0.31597527041365       -0.05647551166071
C           -2.91351124082732       -2.10429066993442       -0.50056603216042
C           -3.78201866892001        0.00963539043716        0.58276746424535
H           -3.57950322991808       -2.79729641262888        0.00765571724585
H           -3.40633784891064       -1.74516486630081       -1.39722082833391
H           -2.00110564219011       -2.63064822074649       -0.77352042351185
O           -3.76491208478775        0.72371087252776        1.72576796669627
N           -4.67153234950269        0.07411202190725       -0.30176054455383
H           -8.10529933832025        1.74531790004678        0.14895216486612
C           -5.78549137805837        0.98596721654116       -0.17669742520793
H           -5.67397989274776        1.66348054944255        0.68403413539078
C           -5.80948264520022        1.78357568519224       -1.49831824133885
C           -7.02840133169465        0.15401767528621        0.04103856060827
H           -4.80708416017431        2.20210688806420       -1.61746057060126
H           -5.95353920893494        1.05923243426652       -2.30207760289715
C           -6.82655222551718        2.92082199517870       -1.64961225950237
O           -8.21435256007581        0.78723279156372        0.18168782783512
H           -7.84409310041846        2.51327606611678       -1.65663355649375
C           -6.69923136787057        3.96666403131444       -0.54156963128688
C           -6.60747613305143        3.59092049236891       -3.00730016394954
H           -5.69224737439022        4.37839136230936       -0.53327433729097
H           -7.39858536099519        4.78240138872136       -0.71307759118249
H           -6.90052963392859        3.55655993819222        0.44672035993492
H           -6.70357691655166        2.86689641742268       -3.81267287035450
H           -7.34012920730490        4.37898538418160       -3.16540692559496
H           -5.61406722860508        4.03092973680377       -3.05820024088249
N           -6.89642920013189       -1.08648535259529        0.18812411868664
H           -5.77109674935123       -2.40057611819796        0.41717596431773
C           -7.97028114693205       -1.99355375489862        0.49628088106604
H           -8.63542762721916       -1.60019845618871        1.27584038824429
C           -8.80355443835145       -2.33956590518651       -0.74173655080942
C           -7.29703761252030       -3.27878199695366        1.01084009737764
H           -8.15124555486910       -2.68458627745706       -1.54133580907365
H           -9.50920062103607       -3.12668714623477       -0.49110444635113
H           -9.34603793449353       -1.46043839678279       -1.08034168367175
O           -5.98149655504429       -3.28059198540560        0.83037441592313
O           -7.90131984628022       -4.18658311729019        1.51047794571767
