42
 energy: -62.486133515084 gnorm: 0.000479048147 xtb: 6.7.1 (edcfbbe)
N           -2.19567912229145       -2.34935686138134        0.73750366335246
H           -2.34812464185782       -2.35263317500544        1.74077304353862
H           -1.27373735677005       -2.73022247747160        0.56081564641864
H           -3.99892288653432       -2.55216290778443        0.09744396904970
C           -2.31003681456137       -0.99432279869300        0.20202129632251
H           -1.85504775318002       -0.22352828685540        0.83875242595818
C           -1.67549650968181       -0.92950316651914       -1.18766432490530
C           -3.79548418313858       -0.68777589364475        0.07149707830765
H           -2.11856859658561       -1.68132609634886       -1.83764537603793
H           -1.83987204311571        0.05509805477741       -1.61518033625250
H           -0.60460287305313       -1.11046047436784       -1.12439499352459
O           -4.57816192491168       -1.77425610466054       -0.04289657115168
N           -4.16040022073607        0.51230618491429        0.04998430528209
H           -5.90529678353567       -0.28085397324177       -2.15103658749298
C           -5.52321173244859        0.97215634104979       -0.08773544684515
H           -5.77763325152720        1.42097485538427        0.87896664657131
C           -5.53820336104205        2.06799617739833       -1.16705717605552
C           -6.55464792766208       -0.10029863784883       -0.36140848121386
H           -4.85334060662757        2.85173210545907       -0.84077318570804
H           -5.13214056148411        1.66269780375443       -2.10006692186448
C           -6.92411904993373        2.66619334847243       -1.43425072280042
O           -6.60969078630297       -0.63749425889201       -1.59625105458872
H           -7.59919004840538        1.87089925851062       -1.77043921080860
C           -7.51881385755270        3.29758741380925       -0.17813561873927
C           -6.81705929328997        3.70737357718452       -2.54778777028065
H           -6.82921503643495        4.02466501025699        0.24516803057927
H           -8.44769972190033        3.80755332004326       -0.42214665365702
H           -7.73778962037683        2.54226225406368        0.57168503896543
H           -6.40809433986291        3.26760029402728       -3.45516618307512
H           -7.79683319261520        4.11711301903832       -2.78006755515093
H           -6.16791024583436        4.52409146108238       -2.23959721773531
N           -7.33578044246362       -0.43079534754615        0.57066133706458
H           -8.07700942015562       -0.11040513626549        2.18790371334420
C           -8.35226368876058       -1.44297586320450        0.38819084939519
H           -8.86556924481862       -1.33941796831431       -0.57594480826881
C           -7.76210470761516       -2.85405813351025        0.48713212209239
C           -9.37280640167336       -1.26747711529490        1.52040249838383
H           -7.23611154146080       -2.96834113640716        1.43268776663192
H           -8.56358161611250       -3.58509399233956        0.43126650392097
H           -7.06033403546765       -3.01402534973621       -0.32681156570421
O           -8.95474065639986       -0.45126567294516        2.48204118729803
O          -10.43086518088129       -1.83227532406838        1.54649550898232
