42
 energy: -62.486133520822 gnorm: 0.000478761876 xtb: 6.7.1 (edcfbbe)
N           -1.97045507354620       -1.87512002031622        1.19082334900698
H           -0.99847415169793       -2.15892692042102        1.20799996827658
H           -2.53398335648257       -2.71695904294004        1.10576634593097
H           -3.22692736909667       -0.75855640565414        2.14226518632604
C           -2.23772902314863       -0.98312526758500        0.06456454085448
H           -1.45367898904007       -0.21466260282709        0.06395788398467
C           -2.27093996762448       -1.66926796300089       -1.30012303669536
C           -3.55018228210612       -0.27174380183761        0.36136120868848
H           -3.04797473110531       -2.43123925007078       -1.31765242895266
H           -2.48973996318159       -0.93541848690724       -2.06842384771661
H           -1.31168630986180       -2.13686308483262       -1.51329762527491
O           -3.89985886073003       -0.24242438706985        1.65460323871686
N           -4.20050976776451        0.25342158811688       -0.58014189661129
H           -5.73321664317622       -0.28757426107970       -2.33130585154947
C           -5.46517329176044        0.91941104522713       -0.31567227596017
H           -5.56202701669348        1.21244842146625        0.73475058357692
C           -5.58543930984425        2.13995088984849       -1.23666753598721
C           -6.52100388018203       -0.11694968128638       -0.61683439601845
H           -4.88138095327152        2.89718922247260       -0.88680281283464
H           -5.27240514772476        1.85177355622995       -2.24413886890802
C           -6.99662688067221        2.73545311015706       -1.29372035350685
O           -6.49570831562808       -0.64477856425824       -1.85499301700554
H           -7.68966336976544        1.96524826343767       -1.65137530371113
C           -7.46808887676658        3.20307003091782        0.08065354294355
C           -7.01647820705847        3.89953035072734       -2.28314493809170
H           -6.75957424729710        3.91156804367327        0.50452167746331
H           -8.43473695127167        3.69399557193992       -0.00345910843403
H           -7.57436154043746        2.36273261124843        0.76085675423261
H           -6.70017148682466        3.57502910397846       -3.27217933788961
H           -8.01897611236492        4.31231734373026       -2.36386416030957
H           -6.34649506166770        4.68949212208407       -1.95030935314356
N           -7.30724777673210       -0.48989288899881        0.29233010041931
H           -8.04325084960671       -0.25248780617705        1.93245056812663
C           -8.29518104239009       -1.52363453842333        0.07362776811514
H           -8.84048815118080       -1.37387939363312       -0.86651231334305
C           -7.66381968298301       -2.92043641664615        0.06188768839926
C           -9.29033212785126       -1.45313027755633        1.24174096364263
H           -7.07204969129541       -3.06556930776569        0.96386398821536
H           -8.45053155496765       -3.66885985090133        0.02713736719166
H           -7.02101228720731       -3.02981797774536       -0.80804599878885
O           -8.89628928622504       -0.65249270189018        2.22384643647885
O          -10.31232166889838       -2.08084619726928        1.26859032598152
