42
 energy: -62.486133517783 gnorm: 0.000479092992 xtb: 6.7.1 (edcfbbe)
N           -0.96977373526703       -0.79583889991904        0.19935926063770
H           -0.10115681252504       -1.02838540819772       -0.26606202190436
H           -1.13074204852723       -1.50133165056349        0.91320255981434
H           -1.87887590926038        0.70767432797697        0.99679537519126
C           -2.08375933646917       -0.78984199834430       -0.74930140110028
H           -1.75980716108727       -0.21951935870017       -1.62891451103763
C           -2.55632229217186       -2.17195338035569       -1.19275613657627
C           -3.21763491782046        0.00188454739766       -0.11506046510813
H           -2.82075654594369       -2.77289934564343       -0.32470085543660
H           -3.43879444398022       -2.06233229976467       -1.81355231287359
H           -1.77532062404586       -2.68268742156577       -1.75230520238941
O           -2.83899929498905        0.84367708507652        0.87110147975656
N           -4.39054896606906       -0.15102244973142       -0.53463205060202
H           -6.32279473664286       -0.24398036031598        2.10060778576280
C           -5.48594655989038        0.62621525073555       -0.00205874611993
H           -5.22222017569420        1.08494663899397        0.96470924241785
C           -5.84720168764634        1.71984902451996       -1.01738724698690
C           -6.64583318580007       -0.32440231565971        0.17888966412335
H           -4.96921443798889        2.35269867690091       -1.16233909642939
H           -6.06934004189366        1.20950539916826       -1.95421767776211
C           -7.04522452925642        2.58254431603009       -0.60979689500739
O           -6.95104820238273       -0.65052499680717        1.49084121935612
H           -7.89240983498352        1.92366069891662       -0.39155753654847
C           -6.74895510365627        3.43341095373516        0.62392350744719
C           -7.43321674966186        3.48417710583737       -1.78006091317530
H           -5.87315412064756        4.05625554828333        0.45331191322580
H           -7.59388179533095        4.08240125513520        0.84246801028610
H           -6.56705515225346        2.81883238232261        1.50224247184399
H           -7.68308104481904        2.88703209798851       -2.65292191152492
H           -8.29683317958535        4.09249150434330       -1.52245916325273
H           -6.60968742363507        4.14709673470692       -2.03770077936487
N           -7.23802373448046       -0.78199875009998       -0.81904513696777
H           -8.75319187121604       -0.63883342766981        1.26695793003437
C           -8.31757320108694       -1.73282934340535       -0.84011792182387
H           -8.45368892976860       -1.99277194956952       -1.89624156122260
C           -8.05220405586414       -3.01434699658271       -0.03825409921324
C           -9.64543926937359       -1.12089690717049       -0.36675612002457
H           -7.97406006331153       -2.80996604180655        1.02736559345447
H           -8.86219651382238       -3.72024310737732       -0.20440863769925
H           -7.11845340681239       -3.45884140370114       -0.37518149349787
O           -9.63102961573754       -0.56963749721430        0.84715122411612
O          -10.64074054397571       -1.15129403207665       -1.03220225878843
