42
 energy: -62.486143125414 gnorm: 0.000732956705 xtb: 6.7.1 (edcfbbe)
N           -1.33154117133021       -0.24914155040848       -0.49945339442183
H           -0.47781599451580       -0.78453056929335       -0.37636934942008
H           -1.60049494536761        0.12398165190055        0.40494271302491
H           -3.62335381963244       -0.17885280056157       -2.87964339198008
C           -2.39687088402561       -1.11309373784871       -0.98869484698469
H           -2.14607137876376       -1.37252028946700       -2.02822237444327
C           -2.57845093804335       -2.40646600605922       -0.18363069340720
C           -3.68568161805528       -0.30802719035183       -0.96402699413765
H           -2.85535289529667       -2.15786383297830        0.83711046116206
H           -3.36770630701741       -3.01360645443333       -0.61899410656987
H           -1.65389385545912       -2.98112036631702       -0.18027752345776
O           -4.18150408199355        0.10248259649543       -2.14360231822612
N           -4.17975510988620       -0.06706028372577        0.16695182335096
H           -6.93921244680226       -0.07634146415144        2.16545893847574
C           -5.40741829108704        0.65277384535549        0.40744346543185
H           -5.33433873484341        0.96832575548697        1.45909525119576
C           -5.65993248181409        1.88367589587211       -0.47654015070272
C           -6.56097583678405       -0.31739718826407        0.26775999717799
H           -4.75612706826529        2.49644681014096       -0.47980681336962
H           -5.83952177595477        1.52722344576206       -1.48961860289331
C           -6.85636586179615        2.72505844136770       -0.01726295872527
O           -7.31422377478242       -0.53908554036419        1.40618858150335
H           -7.70735672447636        2.05927664375520        0.16926242837644
C           -6.55194354346369        3.51047863704879        1.25758295086779
C           -7.25203640012181        3.69012635857153       -1.13324324828422
H           -5.72143475808027        4.19253295425861        1.08800230271466
H           -7.41929977578135        4.09570286375491        1.55491277882996
H           -6.28964348570939        2.85635803082278        2.08627556765349
H           -7.53097905547535        3.14181948284000       -2.02937624704750
H           -8.09830638835667        4.30120674649205       -0.82804005826117
H           -6.42081523136992        4.34883596223332       -1.37561991185111
N           -6.77526059264046       -0.85840820284445       -0.83673741888987
H           -8.92716514044164       -0.57549821568647        0.56950345734949
C           -7.79504025302845       -1.82000410042558       -1.16088948329202
H           -7.55657501483025       -2.16419437420733       -2.17408673609143
C           -7.85153776232243       -3.02996139340632       -0.21822276980125
C           -9.19292983947661       -1.18551395123479       -1.23433900748903
H           -8.14936112016754       -2.74010503183887        0.78705853510505
H           -8.56452047355156       -3.75498891245960       -0.60284090773382
H           -6.86826865288716       -3.49257789998861       -0.16649140417292
O           -9.59896715727850       -0.54678547967200       -0.13731774040037
O           -9.88814062150384       -1.27518688321616       -2.20526548850431
