42
 energy: -62.486133511031 gnorm: 0.000480699721 xtb: 6.7.1 (edcfbbe)
N           -0.77778454500776       -0.34735589053935        0.22000772923307
H            0.12984976904623       -0.32756970120189       -0.22840808315694
H           -0.78924280010883       -1.14354927729715        0.85239611055336
H           -1.98401972841291        0.84409736747445        1.12981021161520
C           -1.84977663525570       -0.47589456485564       -0.76568967309910
H           -1.62943398201103        0.22041817017313       -1.58448212654999
C           -2.02874783431670       -1.88049050696736       -1.33930183950782
C           -3.12830468437603        0.02545079383150       -0.10922382609015
H           -2.19613296177593       -2.59766466354143       -0.53694071502865
H           -2.88842303368367       -1.89149089180822       -2.00110516054655
H           -1.14329690070272       -2.17973284672776       -1.89593601605169
O           -2.94796334163115        0.81229114167286        0.96248392269459
N           -4.24396647402588       -0.28637889242456       -0.60243762091152
H           -5.09035902966857       -2.12517788681411        0.10242236092669
C           -5.47806074822263        0.19862711365174       -0.01274186457081
H           -5.35489821354005        0.35008995542351        1.07193164478491
C           -5.89897498419596        1.52322535760243       -0.66041420879352
C           -6.49762827019186       -0.90207623657034       -0.21242007558064
H           -5.01174249775310        2.15407904865110       -0.74799455546631
H           -6.25751575539459        1.30331737203518       -1.66636317523744
C           -6.97456008971813        2.27500570891295        0.13292319235734
O           -6.05797710802326       -2.14877231470276        0.05497706618112
H           -7.70931649950119        1.54883574034769        0.49168007640914
C           -6.36583219773215        2.99610591718754        1.33423373027056
C           -7.68151343668568        3.28305857506440       -0.77129882503058
H           -5.68056826372853        3.77293668858234        1.00057302283148
H           -7.14569067487616        3.46171032284936        1.93231940743605
H           -5.81467070279079        2.30908891972736        1.97147582168503
H           -8.17082233751044        2.78597762950431       -1.60513099471904
H           -8.43591363051074        3.83006230304604       -0.21090358910338
H           -6.96591960764664        3.99955508268892       -1.16962019796184
N           -7.64867648917383       -0.64771776053434       -0.65028837620136
H           -8.75999922463161        0.49336010235751       -1.49934725309281
C           -8.63117845329379       -1.68025079436025       -0.88094862897834
H           -8.19018165821667       -2.56945520859558       -1.34948870822970
C           -9.32502682140951       -2.09989499703741        0.41949994893579
C           -9.68848932991692       -1.08903127098284       -1.82638361037029
H           -9.73552088126477       -1.22548505636101        0.92084208073225
H          -10.13213860240632       -2.78958785018139        0.18943516954924
H           -8.61037002150894       -2.58504785210724        1.07969308140091
O           -9.56034818600934        0.21944871926421       -2.00844448232210
O          -10.55505439418552       -1.74614342552753       -2.33245596749957
