42
 energy: -62.486133515517 gnorm: 0.000479606936 xtb: 6.7.1 (edcfbbe)
N           -1.12811923265663       -0.23346164561541       -1.60548505177837
H           -0.46322877805377       -0.80660797802437       -2.11080152545328
H           -0.62978963102084        0.21633836130663       -0.84256542286280
H           -2.51568261393916        1.03465461208942       -1.99557386318739
C           -2.22412555221447       -1.04156757446324       -1.07570355166516
H           -2.57212568172913       -1.68988245808396       -1.89061213614311
C           -1.85406289527484       -1.90490768880639        0.12816352315876
C           -3.37722749813046       -0.08746664380928       -0.76737418221441
H           -1.54461323070670       -1.27725929466799        0.96114576801924
H           -2.71455521560951       -2.48806770882895        0.43711539813770
H           -1.04068466759443       -2.58098510523927       -0.12860060331741
O           -3.34789658994250        1.04748567636383       -1.47956217479237
N           -4.23110875524024       -0.44383721492471        0.08044587210078
H           -5.45375006297358       -1.91709025105282        1.37530825223382
C           -5.44179742971077        0.25357488537198        0.46844917381548
H           -5.35207176417230        0.41553514977230        1.55314084821761
C           -5.77590011650056        1.57590982814935       -0.22288155129349
C           -6.50031432632941       -0.81146365183382        0.24883262793920
H           -4.91737700931696        2.24267047191630       -0.13732442458247
H           -5.93813128648672        1.37315098770857       -1.28141897572614
C           -7.00983761082366        2.27256815804488        0.36434220092767
O           -6.33019434220784       -1.94009858153893        0.96587486651756
H           -7.80057293989031        1.52955625281354        0.50262916883043
C           -6.69840032286646        2.91571926149534        1.71463894798773
C           -7.50938923754181        3.33714012099320       -0.61072192017286
H           -5.91004687935121        3.65843989902967        1.60789576477945
H           -7.58247827372785        3.41152287062907        2.10913629051059
H           -6.37713260616702        2.17597976325328        2.44402227048004
H           -7.79610301863982        2.88924003903772       -1.55890743317109
H           -8.37483703401391        3.85343250166670       -0.20157322843074
H           -6.72957553717347        4.07205057666838       -0.79929526518254
N           -7.38915370925851       -0.66551054412203       -0.62763174488699
H           -8.08215655902786        0.28427924779149       -1.99046889191160
C           -8.35623689473209       -1.69394632634198       -0.93112251630592
H           -7.88276455609066       -2.67811688582303       -1.04008942409182
C           -9.44743575575405       -1.78775134929915        0.14091436475852
C           -9.01566706229139       -1.30389044016431       -2.26339224686457
H           -9.90466709296783       -0.81184790667610        0.29326960692673
H          -10.20976631837718       -2.49030414740279       -0.18369707999527
H           -9.01557235109934       -2.12869895567840        1.07852185202481
O           -8.71818482426986       -0.07175570224418       -2.65668469303774
O           -9.74345600163124       -2.03675641788187       -2.87342379440149
