42
 energy: -62.486133503856 gnorm: 0.000481134298 xtb: 6.7.1 (edcfbbe)
N           -0.81991925583175       -1.16783088779500       -0.52713150313863
H           -0.37015494090333       -2.01467937753073       -0.85202630192411
H           -0.54002060583209       -1.02188351629961        0.43862071477970
H           -1.10082684592124        0.66761331201315       -0.99092836795965
C           -2.27331567754581       -1.27997872969678       -0.60973910989967
H           -2.50657828897088       -1.66811992524033       -1.61168363340746
C           -2.88684704398375       -2.19961059368035        0.44880089226374
C           -2.85597476829975        0.15152258839938       -0.53083661061106
H           -2.67983495026162       -1.81257374496946        1.44523770938190
H           -3.96286113057785       -2.27373193679929        0.32904904000510
H           -2.46428394234469       -3.19985759573405        0.36523191946470
O           -1.95759212087471        1.11196482757003       -0.83835308296794
N           -4.01170740239179        0.42110275108209       -0.20236609529753
H           -4.74675322299401       -1.03554558828926       -1.40764774718701
C           -5.35987053787222        0.71535701521621        0.01346381454092
H           -5.50000050630115        0.82980587765311        1.09222939842580
C           -5.72234022342339        2.04942776052844       -0.69128615322181
C           -6.25453473250633       -0.41450699831483       -0.48066256840702
H           -5.01621102954077        2.79485406284794       -0.32114368834922
H           -5.53023918357019        1.91743936396912       -1.75828779909211
C           -7.15100200339459        2.55847264155801       -0.49629637706613
O           -5.67860844811312       -1.29833805419817       -1.31453612191809
H           -7.84747380876955        1.80450035842442       -0.87257580459892
C           -7.46253778925836        2.82640630267300        0.97319820393328
C           -7.34512975353769        3.83608052377745       -1.31188940542430
H           -6.76648758119140        3.55751535968217        1.37991671499406
H           -8.47076221542309        3.21955211026004        1.07586161561793
H           -7.39373525750297        1.91510079875692        1.56020668914300
H           -7.15738325282170        3.65426854505778       -2.36718026141473
H           -8.36390059906428        4.19889274427995       -1.20482008932615
H           -6.66547096997936        4.61444709611108       -0.97125459549576
N           -7.47409070961048       -0.44306185298394       -0.16539789972340
H           -8.96237248873543        0.34898670614016        0.55682209809594
C           -8.35984821395796       -1.45881030600869       -0.69239245440980
H           -8.21112365244603       -1.60291003769401       -1.76960286345078
C           -8.17894927858508       -2.80689866760594        0.01005070166640
C           -9.79941453693904       -0.98109167352892       -0.45217327076840
H           -8.24883986237538       -2.67811786274056        1.08730292343499
H           -8.96119652328735       -3.48376983082447       -0.31817055382234
H           -7.20894477401137       -3.23072172037649       -0.23668738714941
O           -9.88471721855987        0.08024307376272        0.34047643035117
O          -10.75430245203724       -1.53329163237917       -0.92243155688096
