42
 energy: -62.486133477015 gnorm: 0.000490885450 xtb: 6.7.1 (edcfbbe)
N           -2.06442383595593       -1.26082109013702        1.52340406357849
H           -1.12388703108034       -1.63251663864403        1.46591603014323
H           -2.63550760899241       -1.94826856585109        2.00886077295554
H           -3.04106342612639        0.30205361599187        2.03177340174510
C           -2.61406852611815       -1.01893337918554        0.18971699390406
H           -1.84981857540492       -0.48340917668975       -0.38824342487725
C           -3.02909800978237       -2.28027877649716       -0.56500525809456
C           -3.79373492127333       -0.07207904461693        0.35772702007949
H           -3.76642430884912       -2.83247943195424        0.01382575188655
H           -3.47801050124288       -2.00102094866886       -1.51162981640691
H           -2.16679614619012       -2.91927926536329       -0.74523970592607
O           -3.80067917243871        0.62579714246011        1.50586826488579
N           -4.66271429935290        0.00246279064880       -0.54776746772959
H           -7.52076410226646        0.81723571168954       -2.21984982348161
C           -5.80867671899818        0.88009824640809       -0.40158274787389
H           -5.85850771764716        1.29463858554784        0.61469095661833
C           -5.70767675423514        2.02139905914105       -1.41778155059960
C           -7.01118024103283       -0.03142996176410       -0.57933176619225
H           -4.71473837564990        2.46360764916812       -1.31089375468874
H           -5.74872356807224        1.60873204322449       -2.43125640925031
C           -6.76538818906376        3.11931717707482       -1.22188536297072
O           -7.82032988697847        0.10241828709623       -1.64343141401008
H           -7.73445930296793        2.66155177551594       -0.98952660270139
C           -6.38836719247995        4.03264340149425       -0.05719793751744
C           -6.91103418015657        3.94245754669561       -2.50158509758815
H           -5.45698661582236        4.55270038629382       -0.27106262078155
H           -7.16555551730724        4.77502313894459        0.10865684431734
H           -6.26049494250199        3.46425576500530        0.86031169460358
H           -7.24385389227150        3.32632581936561       -3.33517060697065
H           -7.63713368939934        4.73914096606389       -2.35897735216236
H           -5.95785154372968        4.39321665009658       -2.76945736458725
N           -7.16381840233374       -0.92456123756803        0.29529012969871
H           -6.58566436981737       -1.64255914758517        1.79935001387675
C           -8.19852761394489       -1.92930942265823        0.25666459043278
H           -9.19668335908871       -1.47467934555266        0.21877227766106
C           -8.05011071151395       -2.89783874834852       -0.92159587465222
C           -8.07351654949158       -2.72986169606671        1.56522781216954
H           -7.03672831577481       -3.29379246815645       -0.94733618389561
H           -8.75158615224033       -3.71820904788417       -0.79762462666019
H           -8.25265942814008       -2.38459901568033       -1.85739395894634
O           -7.01332905801599       -2.39041986881470        2.28848278336768
O           -8.84561850920509       -3.59075529211429        1.88522250469963
