42
 energy: -62.486133502065 gnorm: 0.000481674426 xtb: 6.7.1 (edcfbbe)
N           -2.32380261633094       -0.72903256856023       -0.19291435053465
H           -2.11615478574324        0.18926875118245       -0.57110599733096
H           -1.95272443525341       -1.42392667638239       -0.83108493953738
H           -2.51405310037579       -0.55287977167900        1.85531521269186
C           -3.76273774284771       -0.90952641179988       -0.00650016577702
H           -4.35750533261500       -0.66740457313649       -0.90109309002345
C           -4.02291025514298       -2.36020761091822        0.40002756733913
C           -4.15798511366388        0.00593121601556        1.15532051324948
H           -3.42355204454319       -2.62094393023732        1.26932831943821
H           -5.07030964551535       -2.49401098615016        0.64897868598229
H           -3.75892958833478       -3.03175761825342       -0.41538936038258
O           -3.29355758527216       -0.05928824540187        2.17143208994088
N           -5.13507208842459        0.79022458742539        1.27638146281210
H           -7.16339663686184        0.91571961225329       -1.94859837142988
C           -6.11715310459802        1.10100279625091        0.27569418618430
H           -6.89555101985205        1.65000907943262        0.82847080613898
C           -5.51609267452524        2.05659089359148       -0.78215669744627
C           -6.84190123310593       -0.08798927729955       -0.33323025427686
H           -4.62229926790879        2.50297122573629       -0.34152971206991
H           -5.18579246078177        1.48701471275141       -1.65755521526708
C           -6.45815704136751        3.19496813260876       -1.21009494812978
O           -7.35527889957237        0.04561785225655       -1.57628349922428
H           -7.48171508347257        2.81366845931192       -1.32444425873607
C           -6.48620467404797        4.29079315037160       -0.14706740022947
C           -6.00752215666240        3.77563391272168       -2.55037214388293
H           -5.50796581223627        4.75864408001940       -0.06385264496208
H           -7.21249813201782        5.05637151297207       -0.40959739207225
H           -6.75100303804346        3.88387709633118        0.82526701982255
H           -6.03479772044724        3.02539308963871       -3.33928643227572
H           -6.65508313576955        4.59826975737044       -2.84340221124483
H           -4.99050524039320        4.15375014104334       -2.47311507602321
N           -7.04110752842582       -1.11046086761883        0.37357099641336
H           -7.00030949043144       -1.86755872382880        2.04290378866812
C           -7.86131929359457       -2.21944160275640       -0.06154017041634
H           -8.87934878944032       -1.86113374755081       -0.27167117720664
C           -7.35915999579280       -2.96656101104540       -1.29960799286381
C           -7.96121487973622       -3.19411786419516        1.12559957156475
H           -6.32776103390517       -3.28131006749302       -1.16254411880829
H           -7.97738124531453       -3.84874032347004       -1.44106802910844
H           -7.42604013060155       -2.33269449428115       -2.17922286914357
O           -7.38824849755399       -2.75184711118509        2.23777634593159
O           -8.51208846387143       -4.25690683864735        1.04720154207066
