42
 energy: -62.486133510138 gnorm: 0.000479169711 xtb: 6.7.1 (edcfbbe)
N           -1.02021728410060       -1.04693418522665        0.71716126427671
H           -0.03202653559650       -1.05085265440634        0.49829919542401
H           -1.28190119910563       -1.99481426678775        0.97352311906869
H           -2.26259964488794       -0.04985907652199        1.77242966257802
C           -1.81460296434035       -0.59789885173841       -0.42433427934683
H           -1.31021845234169        0.27563094112352       -0.85567965880875
C           -2.01490050368106       -1.64895388311556       -1.51587817883925
C           -3.14744171540389       -0.10033086880322        0.12246587881351
H           -2.48629436706214       -2.53951079795450       -1.10200303182211
H           -2.65155816833240       -1.24464844515805       -2.29620377827274
H           -1.05786528214578       -1.93172455421712       -1.94943192696925
O           -3.15215078426111        0.18072117954889        1.43256885341144
N           -4.11898186380525        0.05678624135310       -0.66532492131283
H           -4.91300296861713       -1.67437655982004       -0.88436229992047
C           -5.41014445836920        0.51467652919129       -0.18738833587052
H           -5.37548159961701        0.79886758985503        0.87285661761087
C           -5.75940029723403        1.74346416226776       -1.04599288705852
C           -6.38517469876422       -0.64103468908027       -0.32660351020922
H           -4.96932979515048        2.47731239391916       -0.86477333371591
H           -5.69048318106727        1.44002051469157       -2.09262781829345
C           -7.11669730705015        2.40629565345973       -0.80356075627302
O           -5.84350204857929       -1.83325334560447       -0.63916057671584
H           -7.89812667315868        1.72842149649719       -1.15255997952469
C           -7.35033027712031        2.71733935836121        0.67202531410564
C           -7.19751629361317        3.69001212163993       -1.62921551325199
H           -6.55056891351579        3.34566842692245        1.05948199929202
H           -8.29181058937504        3.24660876935016        0.79807796862296
H           -7.39057200295663        1.80341246407810        1.25820647395227
H           -7.02438769046710        3.48274652118724       -2.68256300809526
H           -8.18081520288131        4.14200842039317       -1.52696540125263
H           -6.45275999155266        4.40909543485097       -1.29354483946191
N           -7.62768000916483       -0.45591445482504       -0.22218688273054
H           -9.12601229272355        0.59714951812349        0.11871032474961
C           -8.55662193227614       -1.55426801798659       -0.38072647819893
H           -8.33943452536843       -2.14080912523970       -1.28227400551384
C           -8.54752822965384       -2.49359972370494        0.83197991572003
C           -9.96434927703921       -0.95707891403457       -0.49581705492885
H           -8.72994618032429       -1.92672129450383        1.74316710517621
H           -9.32804236751635       -3.24013256578459        0.71475923084219
H           -7.58281056559508       -2.98835558718357        0.90855236017096
O          -10.04035645246264        0.30774280804984       -0.09816230217546
O          -10.91254667435505       -1.58493452630137       -0.87798947591898
