42
 energy: -62.486133524820 gnorm: 0.000478414287 xtb: 6.7.1 (edcfbbe)
N           -2.39713107420551       -0.87734399813032       -2.05555660401902
H           -2.52557716297538       -0.06601971436461       -2.65183303004625
H           -2.43507551604682       -1.70184650954994       -2.64404785317219
H           -1.34579347084279       -0.23137313637153       -0.60995594122008
C           -3.44192190611302       -0.93343173484785       -1.02967437858720
H           -4.44049412548419       -0.72112879682415       -1.43053848322434
C           -3.41961087902256       -2.32323638178717       -0.39086444207662
C           -3.06551999798518        0.12396738621022        0.01931389573142
H           -2.42304492653281       -2.53932073318258       -0.01042526584490
H           -4.12795964017369       -2.38922334758072        0.42893295493998
H           -3.68389580622036       -3.07629705282783       -1.13116253344351
O           -1.74248303619357        0.27834522072800        0.12912161422434
N           -3.78046610674420        0.86647183341149        0.74196063804648
H           -5.33209758379034       -0.95239613851329        2.38219312303800
C           -5.20722273836309        0.93205143775295        0.90504999244069
H           -5.35404290841954        1.21049814299947        1.95931794066211
C           -5.73358044953089        2.07135815739281        0.01492538493782
C           -5.94612720752938       -0.36324361430355        0.65822405004790
H           -5.09066120243946        2.93681805763869        0.18206470551769
H           -5.61568377716691        1.76063551172802       -1.02431142434094
C           -7.19414932480966        2.45587153606612        0.27076077867969
O           -5.87519932295092       -1.28056155948134        1.65352299884082
H           -7.80074996573681        1.54483125912108        0.26962029018118
C           -7.36580807197021        3.16078990343516        1.61434743406071
C           -7.68294926778341        3.36441471981536       -0.85641459386060
H           -6.74007824653399        4.04936958484417        1.65805532119012
H           -8.40141150707743        3.46418980134002        1.74953913596609
H           -7.09756717922708        2.51041167711724        2.44279165947897
H           -7.61029923551520        2.86247197008715       -1.81837626863519
H           -8.72090774891056        3.64578861403023       -0.69575176621206
H           -7.08444022350984        4.27180428045837       -0.89623933962268
N           -6.54348867104144       -0.57852551538234       -0.42785541839387
H           -6.87026339422498       -0.14950214717471       -2.20653720520225
C           -7.17970074662282       -1.83856510517187       -0.73177789591661
H           -6.69316508366107       -2.69171405260717       -0.24469198127475
C           -8.66064849423535       -1.80863550918939       -0.33658423949145
C           -7.09907058665866       -2.00379178587500       -2.25482429930984
H           -9.15640910724286       -0.95888752108783       -0.80239913953650
H           -9.14188019235445       -2.72597848972137       -0.66401708845914
H           -8.75050649743646       -1.72171216339936        0.74371994738608
O           -6.96056974226794       -0.84527686311387       -2.89550196838533
O           -7.16843099430334       -3.06149562434057       -2.81268816979158
