42
 energy: -62.486133508489 gnorm: 0.000480607577 xtb: 6.7.1 (edcfbbe)
N           -2.32456385847127       -1.36393312366215       -0.60316755683197
H           -2.14057719047886       -0.68727189309827       -1.33652101965608
H           -2.18243274916845       -2.29097803684471       -0.98798246748384
H           -1.94318719583696       -0.46804615899831        1.13593594521096
C           -3.68505349894171       -1.22128180572838       -0.08326461427674
H           -4.44823972000431       -1.17767118486246       -0.87377857435896
C           -3.97184915212314       -2.39114751505637        0.85845146851637
C           -3.69289723017030        0.06859176195078        0.74225459807321
H           -3.24996116650153       -2.39939064076277        1.67223993677545
H           -4.96835788892503       -2.29773853828055        1.27747726127335
H           -3.89545495975769       -3.33609411224311        0.32282296624901
O           -2.56791911731470        0.21204760124876        1.45521925994313
N           -4.54608731776099        0.98388409179977        0.84897227492155
H           -6.71746321840740        0.83729682216426       -2.10505778004598
C           -5.79421659471711        1.19963896772876        0.18180120621205
H           -6.44526923668174        1.60606085359318        0.97110117143292
C           -5.55689609699114        2.31918825768439       -0.85127028666242
C           -6.55714538104550        0.00404536465839       -0.37505741530108
H           -4.79977634401630        2.97690953459329       -0.42090720511967
H           -5.11308534966316        1.89484406553596       -1.75937414659201
C           -6.80613399508958        3.15402752550098       -1.18134584863849
O           -6.95805548824361        0.01224986018593       -1.66426220705366
H           -7.68999274634722        2.50588759761227       -1.23264019967815
C           -7.05767522225916        4.19401170590111       -0.09189957670639
C           -6.63295954606635        3.84715269522739       -2.53285035849157
H           -6.23350684452808        4.90220268054576       -0.04932123288103
H           -7.97344068236193        4.74349826873760       -0.29682828406976
H           -7.15335873226007        3.72290218547846        0.88282128446241
H           -6.51671774060520        3.12638473995466       -3.34110015507600
H           -7.49932088965672        4.46510786845497       -2.75529366341653
H           -5.75307016556942        4.48637592154709       -2.51642995770217
N           -6.83330227375927       -0.95160484609089        0.40067967876952
H           -7.04102195750432       -1.51910947489114        2.11745748492551
C           -7.66371745163665       -2.06267588618484       -0.01454249755077
H           -8.61304966926633       -1.68431401284883       -0.42027934230860
C           -7.03977448703487       -2.98607475204600       -1.06386298724247
C           -7.99689491188166       -2.87399602575334        1.24884906963875
H           -6.08225995969793       -3.36280488625039       -0.71559189470202
H           -7.70875507622968       -3.82704783058567       -1.22290350006536
H           -6.90030325866079       -2.45426835928036       -2.00113198023850
O           -7.52278841375094       -2.34125381672414        2.36918055583982
O           -8.62905863942611       -3.89257936291496        1.22004976334359
