42
 energy: -62.486133501567 gnorm: 0.000481148437 xtb: 6.7.1 (edcfbbe)
N           -2.40392908809153       -2.10744701205664        1.37009035813256
H           -2.53188942664246       -1.80500780557826        2.33030279421576
H           -1.49031394151144       -2.53914736329744        1.29740009129596
H           -4.22829510383151       -2.44615013094107        0.83606509449224
C           -2.52081591724766       -0.97707607004854        0.45244034825295
H           -2.00367344093947       -0.06880348511909        0.79119759742681
C           -1.98533524583077       -1.37520269035400       -0.92360332093935
C           -4.00601379785052       -0.66259835160042        0.31934455589652
H           -2.50511542494187       -2.25994411056091       -1.28555575483768
H           -2.13973785902732       -0.55999382656747       -1.62401839739481
H           -0.92102407387328       -1.59403215012041       -0.86779498921725
O           -4.80631688141442       -1.71846420957637        0.52365659276673
N           -4.33135953733693        0.50905945607638        0.01241365728105
H           -6.41299118582984        0.30344848555936       -2.39368758316802
C           -5.66577406994346        1.03473815028429       -0.17127778823054
H           -5.95272743390299        1.44697263982198        0.80475869527750
C           -5.55947042153471        2.18650392340376       -1.18092022326867
C           -6.72746708776833        0.01025851855156       -0.52375312608207
H           -4.79380225868409        2.86527025955941       -0.80247434807244
H           -5.18259912197844        1.80385569858625       -2.13589281067109
C           -6.86401987880227        2.96169462340707       -1.40527969739797
O           -6.97261129552912       -0.24238455887065       -1.82664705846178
H           -7.65485638979120        2.26884714311327       -1.71509197464949
C           -7.32416989377057        3.66528445592676       -0.13060184706848
C           -6.65860165309857        3.98543286005308       -2.52155733873526
H           -6.53788162168595        4.31296428391180        0.25089735619927
H           -8.20073977133752        4.27502177604561       -0.33670372882800
H           -7.58968331089213        2.94701776335911        0.64049240695057
H           -6.35421587263998        3.50071418827392       -3.44711115187909
H           -7.57948656364212        4.53131627625620       -2.71118594972693
H           -5.88835280967617        4.70012490502029       -2.24014790717614
N           -7.29899595288430       -0.59697437038730        0.41811472815530
H           -7.29206744245167       -1.00397272078612        2.15187747411450
C           -8.29086125341841       -1.62947387558052        0.23165389705835
H           -9.18151754599159       -1.22198424998462       -0.26371695936949
C           -7.79454737242707       -2.84313420515531       -0.56139345262268
C           -8.69481789238213       -2.10596659522796        1.63742461502508
H           -6.85392285353115       -3.19100876541959       -0.14103438667828
H           -8.53530652676166       -3.63518263058268       -0.49413212914635
H           -7.64046928521221       -2.57717828273668       -1.60312158971343
O           -7.93212908545823       -1.60841109894376        2.60198056413980
O           -9.59828559926546       -2.87101283544498        1.83552810057206
