42
 energy: -62.486133515943 gnorm: 0.000479601696 xtb: 6.7.1 (edcfbbe)
N           -0.83225448234957       -0.00688515716478       -1.05502480175414
H           -0.07342342147448       -0.47671191502753       -1.53365810268713
H           -0.50535510366059        0.23631964064167       -0.12386155678212
H           -2.10203496825737        1.37828324137864       -1.38290516166129
C           -2.00873209479824       -0.86878605129808       -0.96064793277502
H           -2.17721424021897       -1.29528355266704       -1.95842017023222
C           -1.88014373195241       -2.00257887624527        0.05523647873177
C           -3.20456948453198        0.03946216616412       -0.67272801706027
H           -1.81090597234935       -1.59929573572361        1.06324454328030
H           -2.74538517840122       -2.65467681383517        0.00237845153975
H           -0.98778517002021       -2.59020070115617       -0.15308595050106
O           -3.02347578300287        1.31071830549920       -1.05594122664977
N           -4.21509765921434       -0.46395148688519       -0.12409637717570
H           -5.11421981986799       -2.11899795564081        0.19144919513598
C           -5.48996509110672        0.14949791696497        0.17937050590261
H           -5.51152200273903        0.25075381220780        1.27559477104120
C           -5.83788653169964        1.49878902324797       -0.45575851658797
C           -6.50599240071623       -0.93171672944186       -0.16572592175297
H           -4.95361849514287        2.13404345592314       -0.45271905952309
H           -6.12244018050392        1.32226274487141       -1.49427858855300
C           -6.96947144942255        2.23255011974465        0.27655162871964
O           -6.07455683591494       -2.18773453150034        0.02247435225868
H           -7.75072752538800        1.51017070644462        0.52795450379088
C           -6.46374592596289        2.87694600511399        1.56627498101642
C           -7.56441943902328        3.30475959180304       -0.63432569646489
H           -5.69930320260414        3.61917185688834        1.34444853575551
H           -7.28036897676508        3.37237592922263        2.08627104449343
H           -6.03689866530287        2.13796150055833        2.24055792736190
H           -7.97599066087503        2.86461256372586       -1.53915996586188
H           -8.36192226385598        3.83849002789565       -0.12285942612052
H           -6.79929109732760        4.02424670466150       -0.91913227499764
N           -7.64697984533327       -0.62792156879054       -0.60165687129885
H           -8.70244929145844        0.57070135871008       -1.45787188305297
C           -8.62405641071687       -1.63564816213226       -0.94412259139970
H           -8.16615387903507       -2.50691719769287       -1.42999016746619
C           -9.39547802732931       -2.10780300797476        0.29301340133324
C           -9.61886687068244       -0.98695531093343       -1.91800565954163
H           -9.82339406726130       -1.25261910206387        0.81254748095612
H          -10.19600151592750       -2.77422787741864       -0.01541866592377
H           -8.72486465707792       -2.63405310561835        0.96780861573020
O           -9.47054870799884        0.32773055758803       -2.02775481862954
O          -10.45868013486250       -1.60890823168053       -2.50709196631251
