42
 energy: -62.486133511830 gnorm: 0.000479819011 xtb: 6.7.1 (edcfbbe)
N           -0.74819775183143       -0.14891658608573       -0.30409923942152
H            0.06460760353954       -0.26546896849176       -0.89653989405425
H           -0.59765522719679       -0.70515835974019        0.53318438332209
H           -1.86314491813847        1.25862687656132        0.39617225322109
C           -1.96295480776661       -0.59382943783724       -0.98639436525074
H           -1.93846805540462       -0.18040533396705       -2.00251602691550
C           -2.13586404812207       -2.10886760647823       -1.06621419841248
C           -3.14154865235347        0.06583044810540       -0.28578005950822
H           -2.10676255907511       -2.54390645476158       -0.06862280265108
H           -3.09773732705372       -2.33556908093685       -1.51343277084534
H           -1.34422085704576       -2.55226688408566       -1.66645981827117
O           -2.83616273744837        1.15934724404025        0.43354255697785
N           -4.29605018923472       -0.41281692096884       -0.42472137368848
H           -5.40331485271911       -1.86525234025534        1.33810875797215
C           -5.44686868186699        0.22689521059168        0.18885214723657
H           -5.22186924085655        0.50712932327482        1.23023666204697
C           -5.84757269546601        1.47942199578288       -0.59959857892084
C           -6.52566214563702       -0.83318293958476        0.18766341236914
H           -4.96957519240256        2.12421704915411       -0.66985346540669
H           -6.11570692382366        1.15806006651353       -1.60668775980202
C           -7.00357182995719        2.26975986292496        0.02250960840773
O           -6.30295226421971       -1.89729995820368        0.99033053749447
H           -7.78897231727768        1.56741619384823        0.31591409237627
C           -6.54737312448799        3.04334318872091        1.25790119096131
C           -7.57785005646129        3.23542331285919       -1.01271114908588
H           -5.76218876890630        3.74899304552735        0.99426929659901
H           -7.37924245629391        3.59969261145335        1.68376212405542
H           -6.16280143386670        2.37537698093414        2.02449291482563
H           -7.96462924203109        2.69565676157469       -1.87355828486099
H           -8.38978067314328        3.81617087253751       -0.58152058587851
H           -6.80851365728657        3.92477011973845       -1.35454237039710
N           -7.51596348557977       -0.74488570525123       -0.58032964384712
H           -8.34351352447152        0.10647513724175       -1.91998975967567
C           -8.53607846149809       -1.76264456953541       -0.66639266435917
H           -8.09883513819437       -2.76077485481452       -0.79617934675778
C           -9.44713742523866       -1.78080958961936        0.56557543909421
C           -9.39075345636983       -1.43136447487680       -1.90137508220665
H           -9.85228857978459       -0.78644306709972        0.74341978713825
H          -10.26730871543408       -2.47185232071000        0.39250136770895
H           -8.88410125355498       -2.09735847944564        1.43967062225312
O           -9.09531173686329       -0.25863844083906       -2.44729378699588
O          -10.25229440060365       -2.15691977235459       -2.31435906870176
