42
 energy: -62.486133519758 gnorm: 0.000478975639 xtb: 6.7.1 (edcfbbe)
N           -1.49157677951942       -0.68131317785678        0.53294436159168
H           -0.76871571079952       -1.38788947794513        0.46141758429288
H           -1.54322474314707       -0.39740817072454        1.50768937153097
H           -2.09228536846462        0.88678914356800       -0.42241199314238
C           -2.78611512120631       -1.21997833785818        0.11129443357779
H           -2.63029838292524       -1.68815295484740       -0.87038344767180
C           -3.39841383399908       -2.24189371870444        1.06338226066141
C           -3.70701996339314       -0.02674647937877       -0.12312935301430
H           -3.61321090240336       -1.78094675383030        2.02403897954058
H           -4.32860374891553       -2.61466260086704        0.65074559974405
H           -2.71387899778624       -3.07469836720909        1.21233412539419
O           -3.04574534321606        1.08861543835935       -0.51064531836806
N           -4.93530978395299       -0.17416985124882        0.05764238908381
H           -7.94335518343430        1.25331233327094       -1.63652629454126
C           -6.00402649280349        0.76873504373225       -0.14418763224594
H           -6.19684788280079        1.22184955340456        0.84009264548491
C           -5.78266749667798        1.89437180748650       -1.17194059386348
C           -7.22480340336904       -0.09032206390742       -0.46152462889617
H           -4.72766281084833        2.16135117316691       -1.16397034068935
H           -5.99869698643600        1.51551621438984       -2.17653739966251
C           -6.59639002060865        3.16674967736484       -0.87548851643007
O           -8.17375976401073        0.37922340647905       -1.29680908058050
H           -7.59175112597012        2.90293425558796       -0.49372366057158
C           -5.89977850465621        4.00383606039033        0.19601765233596
C           -6.76932801311216        3.99299926185314       -2.14957669975300
H           -4.93101109757998        4.34342018892097       -0.16354588481762
H           -6.49884254735152        4.87574859190295        0.44883278878523
H           -5.74215142627405        3.42455250134370        1.10276322384600
H           -7.30670250138347        3.43647931676891       -2.91597356960219
H           -7.32603714264394        4.90340751430846       -1.93997100833526
H           -5.79713450954896        4.27161292266082       -2.54992551167795
N           -7.30283530801168       -1.21110953719572        0.09937636424365
H           -6.58236797099952       -2.31596666829199        1.26279957829279
C           -8.38088695681699       -2.14791403991456       -0.08463392248254
H           -9.35622592972194       -1.68934468581445        0.12435567478221
C           -8.41214362678974       -2.75382131833864       -1.49144178440450
C           -8.14140899536766       -3.27848256999773        0.93460162425955
H           -7.42927334741698       -3.14585575029400       -1.74527572960187
H           -9.13581426401645       -3.56383448848166       -1.51401249930732
H           -8.69170992391522       -1.99698141795948       -2.21949755817034
O           -6.99541299064506       -3.15883939940400        1.58857432450117
O           -8.91276640378896       -4.18319856830264        1.10116488966323
