42
 energy: -62.486133501447 gnorm: 0.000481746696 xtb: 6.7.1 (edcfbbe)
N           -0.94142615948031       -0.43692300660593        0.43316752143437
H           -0.04459449824911       -0.73164237889934        0.06684263611493
H           -1.06043356834097       -0.87789023708732        1.34122117305903
H           -1.98180421048494        1.14955506658326        0.72391494712293
C           -2.02973746592660       -0.83781350264216       -0.45719513744924
H           -1.72898973765168       -0.57138270881111       -1.47908386371296
C           -2.37996202494744       -2.32338228944295       -0.40486222642004
C           -3.23292583265148        0.03104083573764       -0.11441192449738
H           -2.65255112035659       -2.60644987495640        0.60973968335620
H           -3.22815141507897       -2.52139913801369       -1.05102558276812
H           -1.53263302310291       -2.92582755223503       -0.72628630108320
O           -2.94364053590972        1.16552921442288        0.54085884434372
N           -4.38483138920834       -0.34771397009646       -0.44803814061097
H           -5.75927096426707       -0.63715074671508       -2.25865458398182
C           -5.56195477256795        0.45844560926696       -0.18952949680738
H           -5.66674768051565        0.64734074123462        0.88387327068165
C           -5.53437586776933        1.79897871005403       -0.94613367933993
C           -6.72702057241590       -0.37984033132800       -0.66063332582437
H           -4.74763634719036        2.41753758466162       -0.51226906856347
H           -5.26733151852389        1.60646407133694       -1.99039478458002
C           -6.86571032985048        2.55676616330438       -0.90326838126565
O           -6.64743003026811       -0.82821386882530       -1.92567627961680
H           -7.64690713605254        1.92219474661317       -1.33707052979547
C           -7.26981688987153        2.90945816751115        0.52543621480678
C           -6.75051408988287        3.82557741562921       -1.74679816260514
H           -6.47472894453319        3.46525008169997        1.01815691692083
H           -8.16636790180941        3.52462876576523        0.51864046054874
H           -7.48182415844772        2.01292620039662        1.10107775177863
H           -6.48163342649682        3.58685259439753       -2.77364759619731
H           -7.69686914062301        4.36051114115038       -1.75796625641589
H           -5.98852319493713        4.48465143961497       -1.33587249614503
N           -7.65401343238331       -0.67942273931630        0.13727469609713
H           -8.59537700551909       -0.31931182616662        1.64286203636594
C           -8.77073395836542       -1.50365743680953       -0.27313145371438
H           -9.11139115225427       -1.26189302206984       -1.28743513795341
C           -8.41340439176969       -2.99284857782719       -0.21161162224496
C           -9.91831913675304       -1.24049383606242        0.71233795473458
H           -8.03583134442452       -3.24228814019043        0.77792095356362
H           -9.30128648933541       -3.58467737524970       -0.41526132537940
H           -7.64824291208330       -3.21916575519652       -0.94980431101030
O           -9.54673287582825       -0.54064932074465        1.77819068133824
O          -11.03451461158070       -1.64569675389807        0.54348093095821
