42
 energy: -62.486133510060 gnorm: 0.000480449218 xtb: 6.7.1 (edcfbbe)
N           -2.16362053115000       -1.61438734377851        1.44910459910074
H           -1.22363807098156       -1.99100703399050        1.43311920616543
H           -2.79632089842841       -2.38023926559092        1.66515547510500
H           -3.21352985010262       -0.16717342534904        2.17979445814595
C           -2.51701100840064       -1.03299867812704        0.15527070985963
H           -1.69600437809258       -0.36421065724966       -0.13505836412674
C           -2.75787618645831       -2.04925968217204       -0.95888046268620
C           -3.74263871320024       -0.15994726573473        0.38115594836665
H           -3.56187236059976       -2.72634886621936       -0.67837570014993
H           -3.05150439856958       -1.52868943407793       -1.86370649034978
H           -1.85581795184233       -2.62735098970070       -1.14961782852311
O           -3.91095976608330        0.26134725373667        1.64452389872297
N           -4.49776702158096        0.11281658922404       -0.58705977816079
H           -6.84808543367178        0.39394087009499       -2.48419692414774
C           -5.67822968148824        0.93771644967590       -0.39228484742893
H           -5.74487785885253        1.29616113321729        0.64138437901096
C           -5.62830101970671        2.11925874028110       -1.36449356110210
C           -6.82534058019952       -0.02505652243910       -0.62209814136210
H           -4.76569010081575        2.73015508895288       -1.08921031309613
H           -5.42898002633670        1.74626969355797       -2.37476286563095
C           -6.88670034276975        2.99753228297045       -1.35950633955835
O           -7.32009591672455       -0.17487048715002       -1.86256601577106
H           -7.77090431049830        2.37322332315828       -1.53188551300677
C           -7.06435488277461        3.70963222370258       -0.02047072042834
C           -6.79427336599659        4.02322618115714       -2.48899050041672
H           -6.18321835545390        4.30298539788549        0.21421368995434
H           -7.92397709896444        4.37459432797455       -0.06169974172412
H           -7.22766293744841        2.99725563457127        0.78363560154650
H           -6.69759298215366        3.53427761764333       -3.45640325513865
H           -7.68513698894511        4.64604221876998       -2.51059452584716
H           -5.92989861247446        4.66752201367644       -2.34340515425838
N           -7.18911265055562       -0.72804714465046        0.35796695223894
H           -7.09588646784202       -1.06967818625055        2.11555647369671
C           -8.18376903815799       -1.77066246241903        0.25674786313737
H           -9.11368032546306       -1.39674533752997       -0.18990367041777
C           -7.69514831018241       -2.97462062024801       -0.55616950735809
C           -8.48143247017691       -2.24078963606026        1.69055770084125
H           -6.74096272247175       -3.32165851644963       -0.16409556321193
H           -8.42446873487147       -3.77604792151478       -0.47805861827926
H           -7.56935040131637       -2.69693066361030       -1.59901477835004
O           -7.68266981416224       -1.69954521295092        2.60127341183726
O           -9.33782868828102       -3.03971749099558        1.95198394918593
