42
 energy: -62.486133062168 gnorm: 0.000565676207 xtb: 6.7.1 (edcfbbe)
N           -0.88072087262575       -0.69290215134916        0.38328228144089
H           -0.57914312425253        0.24549561657463        0.62605961280666
H           -0.06225622745443       -1.21760544551995        0.09764801863026
H           -2.39150368476961       -0.96062792833637        1.52872506469479
C           -1.87422470519419       -0.65501551005119       -0.68993455599125
H           -1.67009245066999        0.09956900838326       -1.46096335921717
C           -1.98140236816097       -2.02959829657330       -1.35240433460270
C           -3.20783899079219       -0.32974515462141       -0.04585847248337
H           -2.18036105667432       -2.79497706484580       -0.60499341230645
H           -2.79059297340177       -2.02108430291432       -2.07639123965363
H           -1.05370745362888       -2.27529705799041       -1.86464579144172
O           -3.29808421668713       -0.69979526652823        1.26094726079555
N           -4.12603213915528        0.18636102438235       -0.72265599502620
H           -4.91588358763986       -1.66544531039524        0.74366198619864
C           -5.41965945703305        0.52952283699944       -0.16938115399731
H           -5.30460257034810        0.85285073060544        0.87996637631718
C           -6.01000622074908        1.66486314907290       -1.01001089646672
C           -6.32047528849309       -0.68992756363001       -0.12646582162799
H           -5.19018948714276        2.32682002424253       -1.29360811611097
H           -6.41545305746605        1.22955180920827       -1.92277973992492
C           -7.09303463779750        2.47331036928126       -0.28610958940868
O           -5.80217002619424       -1.82232278251355        0.38483012151260
H           -7.74915903447200        1.77686462706529        0.24373678652506
C           -6.47813578943105        3.43702158079869        0.72761990848950
C           -7.92458965287340        3.25540079400756       -1.30114653776401
H           -5.84317894073270        4.16225448252184        0.22243511906822
H           -7.25885736486494        3.97751733870934        1.25783959120804
H           -5.87573729374278        2.90935868862013        1.46322662959463
H           -8.41990285263440        2.58602088915418       -1.99978566820644
H           -8.68656483216194        3.84360226435961       -0.79528916710257
H           -7.28878170913735        3.93366214406270       -1.86648507135983
N           -7.52218519015351       -0.58864479698483       -0.48746295127210
H           -8.77028282321929        0.28405222634071       -1.45972655345937
C           -8.44167477544251       -1.70107151213291       -0.42417198258565
H           -7.97331446383067       -2.64301354049777       -0.73550941543998
C           -9.01421401058930       -1.87457172755124        0.98710277157397
C           -9.60105668117674       -1.38191404112010       -1.38064118144410
H           -9.44683073613509       -0.93672911853771        1.33043126601196
H           -9.78725974183849       -2.63760259893451        0.96908594720602
H           -8.22566600751705       -2.17417646761925        1.67307283322307
O           -9.58237529908078       -0.13469573612888       -1.83389761455876
O          -10.44898946474934       -2.17936212107611       -1.67041791957705
