42
 energy: -62.486133504240 gnorm: 0.000480336358 xtb: 6.7.1 (edcfbbe)
N           -1.00955710654651       -0.60446294619964       -0.28170903661666
H           -0.29324425675682       -1.27931660719910       -0.52136747475719
H           -0.81949359637513       -0.28097992355614        0.66322208145829
H           -1.87885129223984        0.93695923614090       -0.99400212105893
C           -2.33864916090869       -1.21258701483835       -0.33568339057869
H           -2.40454000572535       -1.76412077403991       -1.28278498076114
C           -2.65684853287984       -2.15727302259707        0.81977861948715
C           -3.35291869784981       -0.07440355504284       -0.42259890455380
H           -2.56086178376722       -1.63271572663242        1.76818438850242
H           -3.67924893001486       -2.50661289854876        0.72685217024881
H           -1.97912595916409       -3.00861225988796        0.81409711996042
O           -2.84268023842727        1.08043412098301       -0.89492168932667
N           -4.53658931529164       -0.30630348485260       -0.08342265016896
H           -6.14319063615506        0.08526533234497       -2.41714603059228
C           -5.65636299587038        0.60414683304916       -0.09742105104958
H           -5.88807604209290        0.79037862928626        0.95762188133971
C           -5.50540941902976        1.94113790392704       -0.83670623823347
C           -6.79760291464021       -0.22984245370139       -0.64802246362845
H           -4.74891710121906        2.53465264018145       -0.32187486412692
H           -5.12996359882551        1.76834894022677       -1.85047558112775
C           -6.81242950419877        2.74156604263061       -0.91119140199210
O           -6.85156559865570       -0.40687153615916       -1.98303516569417
H           -7.57148253038353        2.14560270032794       -1.43136699351864
C           -7.34641198711621        3.08479166148474        0.47757243532539
C           -6.57387753608691        4.02076552589392       -1.71262651183206
H           -6.58142568659846        3.58733581284629        1.06583213502471
H           -8.20352396319899        3.74875035201332        0.39299552213995
H           -7.66610778353910        2.19078686226571        1.00636027716612
H           -6.20747266568523        3.79271276809287       -2.71146909226835
H           -7.49688549906698        4.58716889207708       -1.80943254119642
H           -5.83780992119580        4.64681431138031       -1.21286203850158
N           -7.59449591412613       -0.78332388097180        0.15263276533558
H           -8.32473360447453       -0.92083689584467        1.81017067880972
C           -8.65696558406283       -1.65094791193444       -0.30524179558124
H           -9.16484795735980       -1.24846848726902       -1.19056173496574
C           -8.13143536852702       -3.05395825827305       -0.62972555538732
C           -9.67082332744301       -1.77043738637582        0.84159647260889
H           -7.59013931351478       -3.45271418710732        0.22575700011991
H           -8.96824992732646       -3.70712744928961       -0.86057720306013
H           -7.45964987345972       -3.00819965042608       -1.48296192851143
O           -9.21983095669389       -1.29053946417504        1.99463914653546
O          -10.75389515921865       -2.26898860837718        0.71081076486316
