42
 energy: -62.486133494749 gnorm: 0.000482318415 xtb: 6.7.1 (edcfbbe)
N           -1.20876732803153       -1.88434892031619        0.26320170833286
H           -1.29175084793319       -2.16058199230476        1.23620634284628
H           -0.22356748808958       -1.86561580952836        0.02710178994692
H           -2.77967662103418       -2.54378317905102       -0.55158145328882
C           -1.82294153391536       -0.57573668007273        0.04137502776774
H           -1.64519284089064        0.14398381245018        0.85088377448631
C           -1.31861410907744        0.01487496388347       -1.27573326357026
C           -3.32581159467752       -0.80002784387325       -0.08100278753959
H           -1.49273260781035       -0.68366563465049       -2.09176328112040
H           -1.84457966952876        0.94147010528010       -1.48462396210206
H           -0.25229485797752        0.22167143251809       -1.21478051797702
O           -3.62713041761929       -2.04591708995384       -0.54474423987370
N           -4.09076243450635        0.14052763261350        0.19987437298135
H           -5.29781324286921       -1.97416879403094       -0.81879503523515
C           -5.50237840999181        0.38180971957939        0.15105072256087
H           -5.73702598487936        0.86365857750959        1.10549602857212
C           -5.66412162354487        1.43508346677297       -0.98006836269394
C           -6.53894367798210       -0.70958758806876       -0.06339657905470
H           -4.83849856786237        2.14024195432877       -0.86390973775421
H           -5.52968769072085        0.91964733027442       -1.93518171703815
C           -6.98255155913449        2.21008302763699       -1.00996792392047
O           -6.25646672431750       -1.85365139042795       -0.68983106907523
H           -7.80981989805527        1.49926757011926       -1.07995626933245
C           -7.17147462181355        3.06282767088487        0.24119303222041
C           -7.00842752039980        3.09924406968534       -2.25316537578146
H           -6.35532860047194        3.77564813408437        0.34098383103765
H           -8.10538331210401        3.61525981953372        0.17736165886225
H           -7.20511967883646        2.44802488996667        1.13613669566766
H           -6.90169386882842        2.50495826185754       -3.15783465488046
H           -7.95010878493885        3.63898825286145       -2.30972075721811
H           -6.19800501920101        3.82484262731134       -2.22048895386137
N           -7.71804787499821       -0.41125311469347        0.29042238675706
H           -8.94496271705597        0.80573650991724        0.84973070237727
C           -8.82390182073947       -1.31259325810193        0.05176999731287
H           -8.80144690132485       -1.72243543194135       -0.96650799192756
C           -8.84520225613258       -2.47727976888942        1.04843394159583
C          -10.11660186515876       -0.50416827749916        0.22910687433471
H           -8.82169286817095       -2.09454964787253        2.06698169256878
H           -9.75448897388146       -3.05417720003010        0.90503530637224
H           -7.98139795311125       -3.11756247119108        0.88887281181817
O           -9.92048357014419        0.70357340301337        0.74509008417630
O          -11.20129332230820       -0.93234486501493       -0.05432000016156
