42
 energy: -62.486133512045 gnorm: 0.000479430846 xtb: 6.7.1 (edcfbbe)
N           -0.89107870516411       -0.50283083485860       -0.09358245222501
H           -0.06516810789705       -0.81201005381168       -0.59217374419937
H           -0.92254752737070       -1.01090436183853        0.78646271810670
H           -1.83629673500477        1.14913079633481        0.37660103617399
C           -2.10067153595119       -0.78410947865816       -0.86783634305898
H           -1.93109918991807       -0.39743448717297       -1.88152592576254
C           -2.48758155104751       -2.25782207463384       -0.95217026402092
C           -3.22035220664448        0.05285979398021       -0.27183789199810
H           -2.60654935207189       -2.67207203699099        0.04694961108219
H           -3.43536944803516       -2.34518782484729       -1.47208888722240
H           -1.72473350677401       -2.82382601719852       -1.48298047817940
O           -2.81263859221304        1.17449689257078        0.35918822442922
N           -4.41365935522888       -0.31674551436945       -0.39620807458662
H           -6.60964931450197       -0.14327398886995        2.16500215873950
C           -5.49637764336987        0.50273849495469        0.09727245032215
H           -5.23707233516771        0.94414080112506        1.07344221517864
C           -5.79371256492924        1.62710295156466       -0.90939412311744
C           -6.70739058000668       -0.38981144085228        0.23138534012250
H           -4.89324870013551        2.23517105237284       -1.01459609410649
H           -6.00270863654185        1.13950754725189       -1.86194970836259
C           -6.97631893328266        2.52090574146593       -0.52433158246264
O           -7.18325364040979       -0.57460000786451        1.51999839026574
H           -7.84431212513477        1.88689223230357       -0.31248527261642
C           -6.67256678996180        3.37344409530081        0.70634640348906
C           -7.32665083839748        3.42327388745350       -1.70592990568606
H           -5.78585748673174        3.98047512221002        0.53537472885744
H           -7.50765401839124        4.03726656733565        0.91814060266282
H           -6.50242387991319        2.76108271091564        1.58883306194244
H           -7.58592815825458        2.82609141916565       -2.57623569944835
H           -8.17449270195832        4.05891277611321       -1.46215909202367
H           -6.48136282711769        4.05919560873396       -1.96113404692164
N           -7.20710770339321       -0.90984161929521       -0.78633794905781
H           -8.94226916518283       -0.50740066951016        1.08256178226844
C           -8.32752087806793       -1.80963491431535       -0.85366252252612
H           -8.35453281179541       -2.16091843856276       -1.89162960361684
C           -8.23059972167739       -3.02172482428365        0.08327403146548
C           -9.66532101868781       -1.09837877413695       -0.59819171426216
H           -8.26723249139246       -2.72300700564826        1.12867295123783
H           -9.05418652113998       -3.70212263926627       -0.11896068594930
H           -7.29050125873567       -3.53812392458548       -0.09655794706478
O           -9.76009984782814       -0.43639801703326        0.55554591411462
O          -10.57809284838387       -1.14653532247411       -1.37215654328620
