42
 energy: -62.486133532531 gnorm: 0.000477342922 xtb: 6.7.1 (edcfbbe)
N           -1.14856374639142       -0.25408805932938       -1.67297268609338
H           -0.47300960578536       -0.84470473536248       -2.14200827034409
H           -0.64715938020572        0.30122762501192       -0.98512571581239
H           -2.58408646658387        0.92098313972899       -2.10345724639999
C           -2.17835824746261       -1.05360793487160       -1.01285115771456
H           -2.50796702280208       -1.81644298946561       -1.73014081759414
C           -1.71807558336091       -1.73750811918367        0.27276805514555
C           -3.37960617796546       -0.13725216229652       -0.77840389234248
H           -1.41858813023705       -0.99278476496388        1.00733541893434
H           -2.52939193120381       -2.32401085479947        0.68949275174071
H           -0.87412539250603       -2.39388828278902        0.06900607683258
O           -3.40801704819749        0.93978075727245       -1.57317592625248
N           -4.21873605588608       -0.47345613840804        0.09342200101511
H           -5.34659873407401       -2.05397015282747        1.04750113986286
C           -5.46232889804932        0.19538714323687        0.42525588077851
H           -5.42973763865201        0.32985698485507        1.51758240969056
C           -5.77745191507602        1.53365326487577       -0.24332588148870
C           -6.50454359419787       -0.87130618557117        0.14112075345444
H           -4.90285930551169        2.17981767147992       -0.16067272586642
H           -5.96066943451925        1.35229173028690       -1.30232653158497
C           -6.98448158186609        2.24902650610360        0.37715262562016
O           -6.25224785163230       -2.06983489762562        0.70137941257125
H           -7.78016283909434        1.51671430342383        0.54054374423195
C           -6.62417900570920        2.89009494132094        1.71635917042151
C           -7.49718787632474        3.31954230935701       -0.58460392469238
H           -5.84075170790526        3.63350440863152        1.58176827994398
H           -7.49327333524182        3.38477687794037        2.14398667589281
H           -6.27492107779787        2.14972143657831        2.43218346454795
H           -7.81692061823273        2.87688433329372       -1.52469345298104
H           -8.34355885874446        3.84724575964310       -0.15106036492516
H           -6.71336063115327        4.04431454153903       -0.79489756153161
N           -7.47234754181275       -0.64226828512803       -0.62743861206540
H           -8.26738993955400        0.43016978712541       -1.83718668950729
C           -8.44353755455854       -1.65310213940331       -0.97376573481257
H           -7.96703081212299       -2.61199696925202       -1.21466913841309
C           -9.46010452918613       -1.87625482469113        0.15111818761280
C           -9.19548084408717       -1.14090688737493       -2.21243755249976
H           -9.91910450284008       -0.92997248384271        0.43106941692809
H          -10.23267152914325       -2.55752578990610       -0.19416261854184
H           -8.96316467526523       -2.30133366592505        1.01955154194298
O           -8.94020741530868        0.13034961951229       -2.49495866940409
O           -9.95423222850386       -1.82115261341726       -2.84532671367813
