42
 energy: -62.486133505699 gnorm: 0.000480726482 xtb: 6.7.1 (edcfbbe)
N           -1.26844858832791       -0.62602206173075       -1.54045730462153
H           -0.64695668042925       -1.32166014265133       -1.93509972204324
H           -0.73918383102806       -0.09660006694418       -0.85292399319461
H           -2.56754633722649        0.67538767955429       -2.11271011862616
C           -2.42010237829616       -1.25848762193325       -0.89831263911982
H           -2.82655741098066       -1.98924045568658       -1.60949122404085
C           -2.10956348462634       -1.96151558800439        0.42051639244592
C           -3.49752249737779       -0.18869543557190       -0.73340448004481
H           -1.68246342280137       -1.25575996036964        1.13027767613656
H           -3.02971701342863       -2.35367409672052        0.83949669819270
H           -1.40572386015676       -2.77644722553105        0.26249993149453
O           -3.38595460754738        0.83152569809948       -1.59927546070271
N           -4.36998068930216       -0.36369629569938        0.14985808179050
H           -7.23162580643888       -0.14227025171158        2.07431772018067
C           -5.51411084880391        0.46510050711770        0.43232952895977
H           -5.43658413422474        0.69975746519796        1.50503345546702
C           -5.68629916866862        1.76376279901198       -0.37229947206188
C           -6.73126101852377       -0.40975805410200        0.20960660486571
H           -4.79132997541818        2.37556667734927       -0.25299121052717
H           -5.77113224622908        1.48314169093527       -1.42181374424927
C           -6.91996433697253        2.57852491206682        0.03480739969255
O           -7.58776184178751       -0.56586608622098        1.28425698036620
H           -7.79208650106579        1.91589217558374        0.07266075247635
C           -6.74153777100224        3.24210956095182        1.39981053185072
C           -7.19280066768413        3.64508451407997       -1.02392756983112
H           -5.89242984470866        3.92225709398267        1.37758174636429
H           -7.62989462066111        3.81361003322728        1.65963006705364
H           -6.57080680024948        2.51265830124246        2.18904818712043
H           -7.38917600321274        3.18193899751828       -1.98741391822034
H           -8.05830069402122        4.24366015908975       -0.74905941510265
H           -6.33439004334765        4.30545108050459       -1.12673336572389
N           -6.90305745406973       -0.92923814155735       -0.91267008714445
H           -9.12866531563770       -0.46815979895856        0.32909667166440
C           -7.97729707322504       -1.79399847468524       -1.32415332813104
H           -7.69169900036574       -2.15624122065778       -2.31855965772384
C           -8.21685717326498       -2.99645631725812       -0.40110441660163
C           -9.30072257358311       -1.03323755978999       -1.50023400195432
H           -8.56069894772798       -2.68377584245486        0.58240771458639
H           -8.96337834473551       -3.65023561940326       -0.84536545435806
H           -7.28686300258140       -3.54783655802729       -0.28262087273539
O           -9.73599626920513       -0.37077453341151       -0.42830157954669
O           -9.91974299453618       -1.04780763972281       -2.52537792569669
