42
 energy: -62.486133515648 gnorm: 0.000478945202 xtb: 6.7.1 (edcfbbe)
N           -0.84214667890466       -0.48912149827708        0.43067572577799
H            0.09938800216791       -0.48180918534621        0.05894562756524
H           -0.93635053582084       -1.31763637865573        1.01186954486480
H           -2.05696295376288        0.68876728581438        1.31614006641380
C           -1.83534453516375       -0.51269971849699       -0.64185757675457
H           -1.51595690592283        0.20809931584736       -1.40489987584738
C           -2.03631166398368       -1.87880942971464       -1.29765770458768
C           -3.13802006825169        0.02312459738374       -0.06124436024405
H           -2.30044998285177       -2.62339169220382       -0.54735612575738
H           -2.83932000260144       -1.81532307265676       -2.02499173784500
H           -1.12449667350015       -2.19799727479563       -1.79818960128516
O           -3.00672332693402        0.72046357261203        1.07745078720563
N           -4.21906635368610       -0.17967777258791       -0.67500403881916
H           -4.94244648336536       -1.98209133469388        0.00901955068325
C           -5.47848101002769        0.31601160695820       -0.15539638788735
H           -5.36553911750666        0.65196457877583        0.88762487473377
C           -5.97923935937423        1.48673943977961       -1.01113873946524
C           -6.44550285114041       -0.85036979221745       -0.14643771925821
H           -5.11536818587083        2.08576762523166       -1.30714254007761
H           -6.42854529669125        1.07755976388902       -1.91617162313956
C           -6.98646469738271        2.38079968910305       -0.27788170221429
O           -5.90509212689384       -2.05783452349767        0.10935169081512
H           -7.67508470006736        1.73795928784459        0.27775520396381
C           -6.27799029988125        3.31075206397364        0.70561808744034
C           -7.78652777476151        3.20490125507908       -1.28481459510552
H           -5.62618168634161        3.99914717460611        0.17117258581753
H           -7.00442768318713        3.89392541935662        1.26655853504633
H           -5.67273347157531        2.75144497976279        1.41467681376567
H           -8.34216613766061        2.56247491161063       -1.96319660706255
H           -8.49489726005826        3.84865905516207       -0.76880304110471
H           -7.12045314954207        3.83292220320838       -1.87311112179949
N           -7.66475581324370       -0.67094475465490       -0.40062408909467
H           -8.93770978080140        0.34459736226481       -1.19825960158454
C           -8.61130936350272       -1.76139988615285       -0.42051266268538
H           -8.18445023002000       -2.66955744618846       -0.86572935631693
C           -9.11736767643255       -2.09264473002687        0.98755784442129
C           -9.80655196484604       -1.30457202639796       -1.27088164571134
H           -9.50345844668378       -1.19408296645055        1.46486123262822
H           -9.91282333919352       -2.82937319871588        0.91876632760192
H           -8.30414853567198       -2.49225695799346        1.58842216305617
O           -9.77489455937026       -0.01363381341220       -1.57818874402452
O          -10.68981858233976       -2.04287961263811       -1.60804046686109
