42
 energy: -62.486133509830 gnorm: 0.000480215389 xtb: 6.7.1 (edcfbbe)
N           -0.76020365936164        0.05414911959293       -0.66417823707545
H            0.03496922242759       -0.30023799008164       -1.18127889684087
H           -0.52810980237718        0.01285801640701        0.32423923410920
H           -1.95998515308738        1.54147837666858       -0.72873265388808
C           -1.95782901262403       -0.74069118914512       -0.92932663018912
H           -2.02470340010401       -0.87079482957654       -2.01761523939195
C           -1.96895813739870       -2.11386890011146       -0.26004055296221
C           -3.15763946968296        0.11401617952514       -0.52549469063424
H           -1.99565747102995       -2.00647549503539        0.82228705880422
H           -2.84138158081990       -2.67605319067517       -0.57586211831634
H           -1.07614026458263       -2.67120995701789       -0.53771969325139
O           -2.91432193411967        1.43243098106377       -0.53429486831196
N           -4.23346559427763       -0.46127438263717       -0.22940696780739
H           -5.09759716524167       -2.11080073609476        0.06991647655171
C           -5.50169859286141        0.14618744921458        0.11547706802397
H           -5.50104273056406        0.28918090774182        1.20651227650816
C           -5.86246249229963        1.47129061966901       -0.56554886082638
C           -6.52321102040017       -0.94337035995509       -0.18356448596874
H           -4.97174716204368        2.09438471618270       -0.62846521388201
H           -6.19403017472230        1.24845316322047       -1.58110013261342
C           -6.95422932013517        2.25183166779683        0.17810837871011
O           -6.06754302779909       -2.19435096722144       -0.03112307787577
H           -7.72948460161260        1.55021771419214        0.49831490531537
C           -6.38603606618569        2.95250387029915        1.41104681578798
C           -7.57944973421983        3.28436163004498       -0.75796841567745
H           -5.62589066201148        3.67447786424079        1.11925975954036
H           -7.17437359614919        3.48061189122313        1.94247367175271
H           -5.93452492933142        2.24234691612034        2.09997418511617
H           -8.03208278676282        2.80508202809455       -1.62240520469543
H           -8.35074828355497        3.84929637490371       -0.24002830810057
H           -6.82178895142744        3.98241716124129       -1.10858745843486
N           -7.68649960037558       -0.64855800738025       -0.56509562788849
H           -8.79906378855803        0.54053146132793       -1.35890941895326
C           -8.66465526178982       -1.66804208338106       -0.86912688051679
H           -8.21785311399709       -2.52599845647409       -1.38819603998472
C           -9.36382945420853       -2.16808331477804        0.39951135722214
C           -9.71701914955370       -1.02580598726838       -1.78461944937083
H           -9.77785149182942       -1.32656617009063        0.95158457923949
H          -10.16831857654986       -2.84419068469310        0.12438381630887
H           -8.65045543884169       -2.69108054443186        1.03168236233390
O           -9.59176279772864        0.29167157399670       -1.89139558199763
O          -10.57751503286419       -1.65435231362490       -2.33575223376926
