42
 energy: -62.486133533084 gnorm: 0.000477165757 xtb: 6.7.1 (edcfbbe)
N           -0.70160171195339       -0.06047045923150       -0.32494692507760
H            0.12162660124956       -0.39497874800240       -0.81082362096964
H           -0.57092819923838       -0.24806967352928        0.66533656443322
H           -1.81760527331653        1.49406431172144       -0.26898902166021
C           -1.90626139309220       -0.73572218970639       -0.80398895563000
H           -1.87820776057901       -0.70277976272567       -1.90160349281982
C           -2.03978365840431       -2.18798497527380       -0.34798772029280
C           -3.09373759814717        0.12416783055455       -0.37743811519783
H           -2.17584272779334       -2.23379104492497        0.73013516854421
H           -2.89438706989361       -2.65807298431247       -0.82294725033164
H           -1.14382279227205       -2.74506354668619       -0.61620275725709
O           -2.78915988540852        1.41193845974369       -0.17099784656600
N           -4.21689437998501       -0.42021047030669       -0.23370429572518
H           -5.09796998919163       -1.84727489382910       -0.81861404767149
C           -5.47921587588246        0.22791248913849        0.05491737800613
H           -5.55587237700825        0.39734284383355        1.13463276803086
C           -5.63831325524691        1.56984704906021       -0.68709579863718
C           -6.54392508130566       -0.78526395217010       -0.35479271539162
H           -4.83762332037917        2.22609216990973       -0.34455722306885
H           -5.48029568883593        1.37802888032984       -1.75225386523263
C           -6.96954328572351        2.30330950463792       -0.50939742940881
O           -6.07812160078217       -1.93444111930496       -0.85403300851528
H           -7.76264167306653        1.70678169499985       -0.96468884279781
C           -7.30223424094576        2.53469865678905        0.96171159243475
C           -6.89821897667926        3.64136600623197       -1.24494558321071
H           -6.50013583787869        3.08559933738419        1.44957164896280
H           -8.21817778814682        3.11371457541305        1.05110941251937
H           -7.44390310720053        1.59077229200888        1.48101138032281
H           -6.66471407763532        3.49242420332593       -2.29662372834956
H           -7.85191460107360        4.15861809568226       -1.17733262482266
H           -6.13021169358830        4.27764352778476       -0.80939920178814
N           -7.77035158693349       -0.51631509315385       -0.22583367583572
H           -9.16742084658486        0.59996888766597        0.23775702581388
C           -8.78342735555883       -1.47172665080822       -0.62274345968231
H           -8.58403983811811       -1.88472094718790       -1.61943563213719
C           -8.90094685526177       -2.63049586543949        0.37551211110337
C          -10.12857896042114       -0.73532764691583       -0.64618093273838
H           -9.06929512190413       -2.24154354989454        1.37806598764594
H           -9.73745392702419       -3.26397614563673        0.09420384878898
H           -7.98546071434570       -3.21622878761824        0.37036087790446
O          -10.09993940529996        0.44396995250251       -0.03594639018019
O          -11.11963832785864       -1.19582813893642       -1.14188659378181
