42
 energy: -62.486133511356 gnorm: 0.000480010492 xtb: 6.7.1 (edcfbbe)
N           -1.97321051007867       -0.82841882601197        1.55300957701966
H           -1.03493085501004       -1.19839391115420        1.45841313023352
H           -2.45037455627527       -1.38715291914238        2.25631390069938
H           -2.92226684971137        0.81560679158467        1.79488676703547
C           -2.69925877758276       -0.91617162787610        0.28586140192665
H           -2.03453031552296       -0.53393516807996       -0.49939298458565
C           -3.16513406159046       -2.32212690263666       -0.08593734967494
C           -3.87403350064848        0.04653601923644        0.37557128496883
H           -3.75675087344200       -2.74904955782002        0.72099336406028
H           -3.78594774918502       -2.26864418204576       -0.97354350063676
H           -2.31093240145980       -2.96808449491303       -0.27775473793418
O           -3.74968169941459        1.00875662942517        1.30865413797106
N           -4.85395101604119       -0.09656058193420       -0.39812183161228
H           -8.15008713999614        1.25882285493930       -1.46591275157701
C           -5.98362244318975        0.80353141767252       -0.33456949034834
H           -6.02215562725048        1.31694163406249        0.63929598247049
C           -5.88085837777209        1.85442388941693       -1.45460014647680
C           -7.22100888723757       -0.06852490484392       -0.43390005523077
H           -4.82021047801500        2.03557525931783       -1.64004746098590
H           -6.28799479627297        1.43859588045868       -2.38096485460932
C           -6.55202357545590        3.19349508640626       -1.10746388959639
O           -8.31147754097590        0.38750347706322       -1.08211544607918
H           -7.48689706823310        3.01152620772637       -0.56102765253989
C           -5.63990515117113        4.02471818473921       -0.20689581403552
C           -6.87979392843001        3.96962222288565       -2.38249872405225
H           -4.74504691848060        4.32016588253791       -0.75050451884283
H           -6.15033197941850        4.92426967444976        0.12919471366849
H           -5.33312586998612        3.45617207976351        0.66751228666225
H           -7.57890690316707        3.42216859489853       -3.01252189372743
H           -7.32498052248261        4.93106142327592       -2.13756178057596
H           -5.97325014368047        4.14939051295716       -2.95610409758531
N           -7.17852183746523       -1.17940309907936        0.15263113417335
H           -6.17813748504630       -2.31917744604371        1.01890562258999
C           -8.24691239181810       -2.14515588722724        0.18143582149362
H           -9.16404675546518       -1.71868306193413        0.60691789064817
C           -8.56475033359005       -2.73041038826775       -1.19860450414643
C           -7.75983975529253       -3.28582616103766        1.09488236092737
H           -7.65175371757023       -3.10095856776607       -1.66036990999451
H           -9.26619466439913       -3.55222881650567       -1.08466362260200
H           -9.00104356174115       -1.96697414954257       -1.83704404443149
O           -6.48132305206801       -3.17063703429015        1.43162397696434
O           -8.46098722349480       -4.19439192101836        1.44495300874637
