42
 energy: -62.486133519622 gnorm: 0.000479289374 xtb: 6.7.1 (edcfbbe)
N           -0.93343874414454       -1.32610120671341        0.25614302945031
H           -0.61364582217985       -0.81677737883309        1.07331151753052
H           -0.11875735291526       -1.59968381969832       -0.28011107832109
H           -2.50976098482462       -2.17572589236196        0.82816474404949
C           -1.83573236077650       -0.50426185807012       -0.55018870776399
H           -1.55232752166859        0.55511099958596       -0.59541370558996
C           -1.91903042191873       -1.06120126677266       -1.97180270410130
C           -3.22127068411870       -0.60498426868370        0.07317566672187
H           -2.20570432730410       -2.11058490940809       -1.94814057382360
H           -2.66136302167272       -0.50479278125572       -2.53590585247713
H           -0.95656943599694       -0.97206062447540       -2.47100832016856
O           -3.38958445453372       -1.73697968647903        0.80988124353893
N           -4.03162939386060        0.32226617847651       -0.12296337259744
H           -5.11069157406524       -1.85037582382796        1.10028656755503
C           -5.41898827216467        0.48956715574763        0.23955952147880
H           -5.43958593819537        0.76318162640473        1.30883269591180
C           -5.93354776369272        1.67866617033224       -0.58376854647796
C           -6.33114598160744       -0.72217550169680        0.12513924181841
H           -5.10710356393549        2.38484328440903       -0.67288235619442
H           -6.17166827288632        1.31667329806836       -1.58363375913466
C           -7.14984048769844        2.39187384504866        0.01741377754734
O           -6.03644168398121       -1.84182463201342        0.79943990450839
H           -7.87057764049558        1.63773753333605        0.34577888575665
C           -6.75394267756146        3.24881686316729        1.21859528443505
C           -7.81016476008230        3.27002181552121       -1.04415799461918
H           -6.04595609023751        4.01818259716413        0.91730825038643
H           -7.63004156843148        3.73650708429799        1.63984470599121
H           -6.29519106732802        2.65032581563615        2.00192420764711
H           -8.15439718227176        2.67432374505336       -1.88581208580661
H           -8.66638847647698        3.79365979096752       -0.62557746299475
H           -7.10366731702547        4.01078659367167       -1.41287541093001
N           -7.39613457540934       -0.60099560962505       -0.54155066852498
H           -8.36266000578919        0.28237715728962       -1.77768182473047
C           -8.34760284655535       -1.67965544197087       -0.66642660387312
H           -7.85654992188869       -2.64978356178474       -0.81562970948610
C           -9.25884023617156       -1.77210245917907        0.56299114756310
C           -9.22168089462885       -1.36452884404081       -1.88932542493620
H           -9.73143862993028       -0.80943760815698        0.74894474272357
H          -10.02851475510796       -2.51768117110073        0.38461425266276
H           -8.67453707613782       -2.05576216173912        1.43475838130783
O           -9.06721677292103       -0.12457831940376       -2.33801198743958
O           -9.98286070318542       -2.15489262386408       -2.37430442897672
