42
 energy: -62.486133501745 gnorm: 0.000482412833 xtb: 6.7.1 (edcfbbe)
N           -1.81706264715978       -2.09173904881797        0.62885239475407
H           -1.52102475045430       -1.78504470217403        1.54966899601288
H           -1.03638400124378       -2.56837367872903        0.19299230589460
H           -3.72451811891710       -2.37619443973158        0.87131851490252
C           -2.24943147643730       -0.95587023974086       -0.18413729294261
H           -1.62623815215749       -0.05912203949752       -0.06349767755215
C           -2.27328541296637       -1.35288750850318       -1.65993957453910
C           -3.67021893238451       -0.61221084754670        0.23148638008063
H           -2.90130456223866       -2.22951624015742       -1.80038538127387
H           -2.67558448792155       -0.53355617833869       -2.24710675366668
H           -1.26788135761548       -1.58087201204678       -2.00843551888200
O           -4.34495421946721       -1.62144031052178        0.80988274994780
N           -4.10734733061902        0.54070954057883       -0.00100185248777
H           -6.37324740170360       -0.24584761508927        2.21464793669861
C           -5.46695994760787        0.95890285036115        0.26422273093517
H           -5.46318503176349        1.44840700507629        1.25071372374076
C           -5.84351546656715        1.98906450282321       -0.80806847926354
C           -6.46679022652551       -0.18122813099850        0.28883584203590
H           -4.98513844326944        2.64466311072644       -0.95530840233179
H           -6.01390165639750        1.43655739021487       -1.73191037538723
C           -7.08220666483282        2.81652323619818       -0.44550469598439
O           -6.88464823173235       -0.62970952088751        1.49233436229006
H           -7.81892350643796        2.16309357794246        0.03566658854607
C           -6.73093489751870        3.94082988400990        0.52691776530590
C           -7.70892750690955        3.40261150543988       -1.70890498669326
H           -6.02943530253648        4.63267104594495        0.06464785757937
H           -7.62469115893104        4.49397704471095        0.80672638302039
H           -6.27628619927980        3.55150999772615        1.43518203512361
H           -8.00148764420755        2.61482397034279       -2.39934166355192
H           -8.59191456013234        3.98700443879318       -1.46199092746899
H           -6.99706227192215        4.05186082810596       -2.21395262330932
N           -6.89549037961028       -0.62825986060747       -0.81003599408353
H           -8.76352354182880        0.43754302367069       -0.99542791429627
C           -7.84300639607155       -1.72305214179554       -0.88141530983875
H           -8.00280111345091       -1.89358686286446       -1.95833937401195
C           -7.37026347675455       -3.02494887948507       -0.24037582709452
C           -9.20394513769996       -1.29667372571317       -0.32001129084199
H           -7.19063783434641       -2.87707842813872        0.81981049828804
H           -8.14077966487618       -3.78086474948250       -0.36254303130321
H           -6.45115576859157       -3.35731724490565       -0.71604103872951
O           -9.50367893445321       -0.00848402479557       -0.55016701091231
O           -9.96641743826516       -2.02890078580385        0.23887123309365
