42
 energy: -62.486133512863 gnorm: 0.000479784967 xtb: 6.7.1 (edcfbbe)
N           -2.34532422288103       -2.37969146244581        0.77316228723630
H           -2.58385217944141       -2.37111704515168        1.75971148313104
H           -1.41370377189937       -2.76771077511442        0.68146571689697
H           -4.10374135724504       -2.54969571336986       -0.05522963740713
C           -2.40092980597086       -1.02827060502411        0.21979799966919
H           -1.95103450593975       -0.26046775431473        0.86385794710529
C           -1.71202668390826       -1.00407861942839       -1.14543702141593
C           -3.87099587362000       -0.68937404645378        0.02708803709394
H           -2.15597227871702       -1.74929650213055       -1.80247069318448
H           -1.82364019688588       -0.02106587149711       -1.59317912138318
H           -0.65172349863250       -1.22257358290543       -1.03800198240111
O           -4.65562011604679       -1.75547644146646       -0.20657740217947
N           -4.22284827070556        0.51383912801713        0.06636904482663
H           -6.16370252803471       -0.13320798339869       -2.20847873108319
C           -5.57083983214969        1.00385554522439       -0.11127423951876
H           -5.81942395265346        1.48352142421155        0.84278084662699
C           -5.54082436454020        2.07607139509621       -1.21187864373156
C           -6.62604422144474       -0.05523493165404       -0.35279797511782
H           -4.81822808210407        2.83208806762413       -0.90105666851320
H           -5.15525976415025        1.63766156564482       -2.13907021813358
C           -6.89664221955515        2.73946494029386       -1.48258581844228
O           -6.80712110877494       -0.52207204291663       -1.60371865640839
H           -7.61914291772964        1.97499697721882       -1.79024344090164
C           -7.44212714577362        3.43625317379213       -0.23844849499756
C           -6.74600764137506        3.74381557912643       -2.62472107170815
H           -6.70804974051582        4.13290317737766        0.16044247023127
H           -8.34245691554712        3.99268394797420       -0.48818673487840
H           -7.69706961585192        2.71518738735576        0.53361718917997
H           -6.37065052974476        3.25939031680716       -3.52391173803995
H           -7.70482408824597        4.19936114263721       -2.85913141341570
H           -6.05100992278814        4.53235313204550       -2.34448858363344
N           -7.29364782304315       -0.46365758976989        0.63562903991265
H           -7.86263188844546       -0.25584829481639        2.33796099510045
C           -8.31398450065221       -1.47899997450611        0.49484553161610
H           -8.93533446416076       -1.31133427396097       -0.39387188811871
C           -7.70838963534834       -2.88466215786090        0.41652035226231
C           -9.20091402937715       -1.40556155399987        1.74472404040259
H           -7.07684737611460       -3.06309238089597        1.28426468673549
H           -8.50767130836568       -3.61993808106842        0.39679874557956
H           -7.10466099691301       -2.97282253113317       -0.48239788662769
O           -8.69477449691113       -0.63855260895965        2.70447486325751
O          -10.23649742404989       -2.00166974589544        1.85258164178552
