42
 energy: -62.486133517612 gnorm: 0.000479349046 xtb: 6.7.1 (edcfbbe)
N           -1.33599541748776       -1.91281698578389        0.49920717111791
H           -1.45776812724426       -2.01289490063100        1.50190279929489
H           -0.34630023166504       -1.99066051980394        0.29664688512181
H           -2.97225160633776       -2.59995669752373       -0.20598499499201
C           -1.86028755376729       -0.62690767079051        0.04152771609926
H           -1.62386587938297        0.21509462897169        0.70535264953391
C           -1.33086688087768       -0.32501763508324       -1.36110182889175
C           -3.37452047038711       -0.76526593629597       -0.03674339276680
H           -1.56101337244750       -1.14779997886658       -2.03517477067568
H           -1.79253448254227        0.58279502059735       -1.73775352787420
H           -0.25216325910492       -0.18659943728891       -1.33675566981447
O           -3.77428354709434       -2.04156334275361       -0.29105975804707
N           -4.07632011560029        0.25644102250080        0.09386313713966
H           -5.31932912382606       -1.73602669110832       -1.16041531063891
C           -5.48791511895239        0.50220276171283        0.05115076793548
H           -5.72578160635296        0.96019126231728        1.01658117369172
C           -5.68150683294699        1.57188258937471       -1.05530956908395
C           -6.51074799567728       -0.59254167648106       -0.18867875692452
H           -4.86567050097029        2.28834487493672       -0.94362644325626
H           -5.56270145386718        1.07934815613712       -2.02431693172305
C           -7.01905738560392        2.31584993370634       -1.02819069757928
O           -6.27278452828220       -1.59285367550764       -1.04622858370505
H           -7.83202537619060        1.58412359830112       -1.03473749474882
C           -7.15861251175068        3.18862984299691        0.21590623380999
C           -7.13932809645474        3.17984487377198       -2.28323673461930
H           -6.35706662850468        3.92347434798078        0.25506003897360
H           -8.10881853111414        3.71611726078851        0.19561167731918
H           -7.12641872511468        2.59226217189316        1.12330110038385
H           -7.08083010721802        2.57011613946133       -3.18200614148487
H           -8.09153126771941        3.70418448714064       -2.28917702592576
H           -6.34054134689599        3.91816080777810       -2.31542562447248
N           -7.64400622792502       -0.41035468046511        0.34302329079624
H           -8.82245045299998        0.69996776523545        1.14101304310919
C           -8.75174242432333       -1.30560166047215        0.09121062171773
H           -8.83884732928916       -1.55531274501431       -0.97435420326427
C           -8.63122539036014       -2.60654863892981        0.89207863206959
C          -10.03157393376520       -0.57774928742154        0.52811824231069
H           -8.49382148752605       -2.38060995532958        1.94771766855450
H           -9.54006746471774       -3.18842792959623        0.76723368912695
H           -7.78016220296006       -3.18292152829651        0.53811494175813
O           -9.80171234306799        0.57640389849810        1.14294350998443
O          -11.13174392114729       -1.01902956994858        0.34164723008593
