42
 energy: -62.486133515967 gnorm: 0.000478776102 xtb: 6.7.1 (edcfbbe)
N           -1.48198946374509       -1.54989742452069        1.05480029632227
H           -0.48230916796405       -1.69995481375131        0.99597768959878
H           -1.92877953043659       -2.46256305780055        1.07919545826141
H           -2.77219572845750       -0.52287717302621        2.05970877010458
C           -1.96884308178856       -0.78687423107656       -0.09188487080319
H           -1.29344951713800        0.06783267130279       -0.22578584034935
C           -2.04496703013657       -1.57436890656814       -1.39934988523634
C           -3.32529497075825       -0.21401519090468        0.29591951403864
H           -2.72305830473011       -2.41933518696619       -1.29100776514159
H           -2.41448749880847       -0.92973634890072       -2.19041022156566
H           -1.06004613573875       -1.94596548960420       -1.67489478782408
O           -3.54756702600387       -0.12606550211618        1.61361530948199
N           -4.11863461575072        0.16588433069602       -0.60501792576053
H           -5.22208820245532       -0.92077594005303       -1.93283551121845
C           -5.42785577328137        0.69576124703989       -0.27302169455193
H           -5.51509393003326        0.96268019440120        0.78462782140583
C           -5.68794735310325        1.92155558805813       -1.16351579813842
C           -6.42432210230339       -0.39605617177425       -0.58651926423989
H           -4.91356883390329        2.66053946528615       -0.94756431159954
H           -5.56770274313720        1.61364393671431       -2.20528006424874
C           -7.06951514847884        2.55580685654651       -0.97679871942348
O           -6.10703753402264       -1.18599509801394       -1.62642679455553
H           -7.83209856999332        1.78370418226506       -1.11977042749142
C           -7.23707168293286        3.14883301232643        0.41971285310915
C           -7.27523341711889        3.64109053795667       -2.03266794529207
H           -6.47639111096919        3.90494808090095        0.60415776522575
H           -8.21454685346341        3.61553779156593        0.51210725220982
H           -7.15735764178622        2.38123008106601        1.18397766462251
H           -7.19481578156577        3.22712714043362       -3.03533890797696
H           -8.25968221653564        4.08981109948537       -1.92681673155593
H           -6.52760621068183        4.42414701858682       -1.92310175220226
N           -7.47333109950995       -0.50669808697437        0.10089616419348
H           -8.70473719946360        0.29306374762121        1.16588733313404
C           -8.47049029202911       -1.51335030973584       -0.18928263631225
H           -8.62978951728889       -1.63350047899844       -1.26881427591291
C           -8.08875253323002       -2.87185955629976        0.40725141813232
C           -9.78656616643338       -1.04801588420325        0.45233121078920
H           -7.86603865099079       -2.76155321475347        1.46661541489583
H           -8.91894139024784       -3.56215664289110        0.28657140499747
H           -7.21238037225968       -3.26649090743094       -0.10105411132098
O           -9.65289905251961        0.02724671167397        1.21861357270343
O          -10.83070780891298       -1.61436389630292        0.28412834851363
