42
 energy: -62.486133509919 gnorm: 0.000480130526 xtb: 6.7.1 (edcfbbe)
N           -2.18861304356159       -1.97521925437019        1.27852657842894
H           -2.07964330456362       -1.49619741645380        2.16661224404256
H           -1.34526680142512       -2.50918436781285        1.10600889773347
H           -4.10664685817670       -2.22071154720028        1.19434580075454
C           -2.42785790164154       -1.01825065975882        0.20075883657068
H           -1.80219478519720       -0.11733973016444        0.25415422162920
C           -2.20863955209625       -1.70014811549709       -1.14969808963973
C           -3.88782591498361       -0.59582887617152        0.29337242782534
H           -2.84092179150981       -2.58095961068960       -1.23046866206780
H           -2.45582891274959       -1.01025390847866       -1.95071189190267
H           -1.16975076024239       -2.00465496118320       -1.25638415287640
O           -4.68979321948756       -1.50607839890713        0.86220349354167
N           -4.20981583157304        0.52640216888387       -0.16875079825394
H           -6.15551102443377        0.13601381759031       -2.36804860735350
C           -5.55435909100230        1.06617321868859       -0.20756961598462
H           -5.77837929026670        1.45160135730915        0.79486797375678
C           -5.55229704352910        2.22787887426442       -1.21051904683420
C           -6.60753062362502        0.02313286552041       -0.51043888591624
H           -4.84106560826065        2.96843565738882       -0.84212824261905
H           -5.16123779363645        1.87722101459870       -2.17120216394444
C           -6.92093593238417        2.88752253663411       -1.41733929744628
O           -6.75413384394935       -0.36190128988893       -1.79732846519577
H           -7.63333692713710        2.13882126133087       -1.78269049450197
C           -7.46835578436428        3.46752249668519       -0.11531988569659
C           -6.79791731001537        3.98634438303342       -2.47230447420598
H           -6.74727563112795        4.14953414045730        0.33005297731471
H           -8.38593892164620        4.01812834225265       -0.30923222927129
H           -7.69378401511349        2.67993308195275        0.59889258213982
H           -6.42480436907037        3.58497664015685       -3.41230971019607
H           -7.76575518443048        4.44519895626824       -2.65848067896148
H           -6.11156749295749        4.75923121026945       -2.13343854975690
N           -7.25153022306804       -0.48911921283248        0.44036549396304
H           -7.52767411815356       -0.65591464038391        2.20930195062589
C           -8.23624692438456       -1.52928795992925        0.25298792783474
H           -9.00402993155929       -1.22350891903881       -0.46892206504658
C           -7.62419978224980       -2.85699180020970       -0.20763891994877
C           -8.90315385684970       -1.75895076465784        1.61810232221760
H           -6.81120519377477       -3.13370218076803        0.45973268160417
H           -8.38877417468156       -3.62859536732472       -0.18515275019931
H           -7.23672315643034       -2.75865790031835       -1.21793675623006
O           -8.27404891754136       -1.15621720244878        2.61880815641603
O           -9.88162038222246       -2.43842378886369        1.76385509127947
