42
 energy: -62.486133495371 gnorm: 0.000483408434 xtb: 6.7.1 (edcfbbe)
N           -0.81004183399368       -0.23192711386108       -0.94137759123197
H           -0.05452091796879       -0.81076001161088       -1.28697817269301
H           -0.48700860193888        0.21624357769745       -0.08810277139430
H           -2.02819473964913        1.08127019866104       -1.54999296078629
C           -2.00104041930797       -1.03148210292675       -0.66100162675321
H           -2.14882311105292       -1.70292581685549       -1.51735357118146
C           -1.92449730214393       -1.85778783607140        0.62064699900994
C           -3.19342513653814       -0.07145874007294       -0.63995068095415
H           -1.74423631498621       -1.20619692507414        1.47324471513879
H           -2.86562511558162       -2.37280354233702        0.78019894254064
H           -1.11990248324682       -2.58738258384782        0.55548937269190
O           -2.96740083812825        1.09173615336997       -1.26756879384456
N           -4.24239769647928       -0.45101365289177       -0.06162516144665
H           -5.17325137301190       -1.55034638554841       -1.49618982363795
C           -5.51007150339347        0.22904346986932        0.04884697270915
H           -5.70981678563474        0.30559933491844        1.12284997749748
C           -5.60808747939019        1.62855329911431       -0.58929436628692
C           -6.56019708008635       -0.69215892920680       -0.54625390062324
H           -4.80009725340616        2.23730997592514       -0.18028321859907
H           -5.43783497549525        1.53222081693769       -1.66417164346156
C           -6.93703348116596        2.35461468884460       -0.36159309013521
O           -6.14357528797832       -1.56920273153630       -1.47585913378775
H           -7.74776200732474        1.74295511885130       -0.76678585221739
C           -7.20736955164780        2.60649150358285        1.11956231047559
C           -6.91507902232802        3.68276338526176       -1.11768416013747
H           -6.39718118034351        3.18455776237306        1.56018812430212
H           -8.13159173443080        3.16627117500520        1.23916988157607
H           -7.30638899130548        1.67309800713926        1.66686713092476
H           -6.74616423560269        3.52058509040685       -2.17973169175437
H           -7.86301076250208        4.20135339015220       -0.99802051546111
H           -6.12193627493514        4.32415518043630       -0.73853581664675
N           -7.75649799410644       -0.59402390311247       -0.16350658378354
H           -9.07807042999156        0.37149063152254        0.65661423752072
C           -8.80482968585052       -1.41541755276553       -0.72776177859001
H           -8.70959961624761       -1.51258889683617       -1.81659295783802
C           -8.81797510446077       -2.81652491813299       -0.10625329444736
C          -10.14316051777745       -0.73401623988829       -0.40724140961647
H           -8.87186082242930       -2.74048913066097        0.97788682494360
H           -9.68457730744612       -3.36169748319928       -0.46942222721518
H           -7.91194929935837       -3.35113746945202       -0.37990956214684
O          -10.03687750062581        0.27030068891718        0.45437556407460
O          -11.18722949272694       -1.09129727344541       -0.87796367052847
