42
 energy: -62.486133511773 gnorm: 0.000479863556 xtb: 6.7.1 (edcfbbe)
N           -1.31679304156556       -0.59304357417271       -1.59451712236335
H           -0.71357256480337       -1.27180925791700       -2.04283110972390
H           -0.76352959042305       -0.10556132146725       -0.89485911187302
H           -2.59016563517681        0.75616863768787       -2.04976636588789
C           -2.45746711794822       -1.24900858219119       -0.95584580740070
H           -2.87347141290260       -1.96033690460292       -1.67990598771904
C           -2.12328337210953       -1.98680522487855        0.33786316031903
C           -3.53787595002451       -0.19101377824523       -0.73941643305083
H           -1.68073805707289       -1.30034776282292        1.05722518073256
H           -3.03656368891099       -2.38745065345991        0.76291185303085
H           -1.42398300252085       -2.79833357914408        0.14598571737965
O           -3.40896801906705        0.88836879297794       -1.52905137099803
N           -4.43169238101714       -0.43205178356132        0.10534016326271
H           -7.61498967596907        0.17392082567307        1.76475079457752
C           -5.57414921857653        0.37384358044946        0.44009347041645
H           -5.52724994706162        0.48957120665812        1.53415035542389
C           -5.68846774598702        1.75975558345033       -0.22529217164155
C           -6.80223189165828       -0.44345828028083        0.10158147373533
H           -4.75896814803773        2.30181686298620       -0.04548253943412
H           -5.77940541479858        1.59774689434067       -1.29969805169368
C           -6.86565018897458        2.61445222306186        0.25917252706093
O           -7.85319736002169       -0.36493582119855        1.00082080820741
H           -7.79329919120920        2.03587254445721        0.18834908581566
C           -6.67585236072790        3.08655159575220        1.70092648278835
C           -7.01319304783336        3.82764584128682       -0.65826130737568
H           -5.78424914465224        3.70564326186184        1.77580497103756
H           -7.53015025817507        3.68029708300130        2.01908309228004
H           -6.56652773493713        2.25703966627127        2.39753983347216
H           -7.20917010215857        3.51111192218441       -1.67947447025947
H           -7.83796564108728        4.45627730363791       -0.33015880430084
H           -6.10213658618075        4.42200437825842       -0.65084474724628
N           -6.82151322230596       -1.11797426240638       -0.94838644884908
H           -9.17323093920164       -0.30210045895023       -0.23938538430920
C           -7.88877900496331       -1.95162179699946       -1.43599255205251
H           -7.46795871889076       -2.48588158539244       -2.29569425539121
C           -8.41427907142639       -2.97346852303804       -0.41844000864410
C           -9.07360557433326       -1.13129980272218       -1.96907856193098
H           -8.89805735126698       -2.48591945593463        0.42509069489693
H           -9.13013637585076       -3.63204678892033       -0.90414167205160
H           -7.58272895348480       -3.56641079549826       -0.04459935440938
O           -9.62425221068102       -0.27894878803907       -1.10449456511481
O           -9.49669234493077       -1.26028546687770       -3.08213634327644
