42
 energy: -62.486133502809 gnorm: 0.000481663669 xtb: 6.7.1 (edcfbbe)
N           -1.24850887594065       -1.94393143293950        0.26870851586863
H           -1.32099120315936       -2.21947981099495        1.24248841637608
H           -0.26772139739724       -1.94756447596962        0.01568950034298
H           -2.84824073443338       -2.58390013275672       -0.47707523430782
C           -1.83683400060688       -0.62164007193554        0.05806123260465
H           -1.64568566997056        0.08476785844250        0.87624988184683
C           -1.31774330581063       -0.02276488865215       -1.24918869697203
C           -3.34477304876816       -0.81281421962384       -0.06480684987734
H           -1.49211443344552       -0.71135053132010       -2.07358315792007
H           -1.83526503618473        0.91013914454999       -1.45084885976586
H           -0.25033481854523        0.17513188898608       -1.17851926398921
O           -3.68387743167478       -2.06622980660342       -0.47508128639115
N           -4.08421880673556        0.16288592410110        0.16238535781991
H           -5.32096929869194       -1.88397922442265       -0.99173239691972
C           -5.49449010065739        0.41031947245166        0.11701424361370
H           -5.73119513079768        0.87804230075265        1.07764626034668
C           -5.66186810943345        1.47576005391355       -1.00121824778297
C           -6.53231911997891       -0.67266586442417       -0.12189972075123
H           -4.84109971698767        2.18525010574668       -0.87890304066685
H           -5.52629764740103        0.97241216435506       -1.96264149541157
C           -6.98826265770565        2.23793036826168       -1.01544602243859
O           -6.27774915277145       -1.74647833277440       -0.87452851243913
H           -7.81061109538600        1.51878183323671       -1.05832081547951
C           -7.15926742990575        3.10388432343724        0.22915796167609
C           -7.04878988655061        3.11086889652929       -2.26874354372306
H           -6.35125279777912        3.82919959602941        0.30004740011334
H           -8.10238501400785        3.64197515366584        0.18149281300939
H           -7.16251928628305        2.50014873343603        1.13223535983927
H           -6.96485030419250        2.50501606480368       -3.16813314640859
H           -7.99262075699373        3.64844859140785       -2.30744117485973
H           -6.23895856086558        3.83784593906153       -2.26665883983078
N           -7.68934307980851       -0.41929842636353        0.32573530478506
H           -8.88836098392384        0.76826813057886        0.98857276033250
C           -8.80659444094123       -1.30170475260111        0.07105275100882
H           -8.82208605373674       -1.65371327957656       -0.96855121707765
C           -8.79498698659865       -2.51885861644647        1.00274369447840
C          -10.08855018027842       -0.50089476258358        0.33959258148493
H           -8.73208799219605       -2.19188552795540        2.03891177326817
H           -9.71063091864148       -3.08642807345018        0.86267645931586
H           -7.93934322728698       -3.15028218612446        0.77682308653066
O           -9.86781526995332        0.67624780135567        0.91298223277619
O          -11.18457723873174       -0.90948568067742        0.07198873434904
