42
 energy: -62.486133488453 gnorm: 0.000484130654 xtb: 6.7.1 (edcfbbe)
N           -2.21268538380790       -1.64939855764412       -0.77464116861096
H           -2.05913123620724       -1.20347898727629       -1.67312235378217
H           -2.16326597130091       -2.65265925026640       -0.90955073619747
H           -1.56103185379937       -0.39438599063587        0.52646883685444
C           -3.50473188562542       -1.26244210721231       -0.20855689544327
H           -4.32092493571957       -1.30091948637834       -0.94120567233070
C           -3.82975089905352       -2.17946897584254        0.97221446499430
C           -3.34067722423985        0.15223773855246        0.36183021382274
H           -3.05012089598132       -2.10229546818276        1.72710296708412
H           -4.77796751024356       -1.88928100274328        1.41644598756591
H           -3.89072028500670       -3.21533563984675        0.64257655135717
O           -2.09783528763122        0.37711343475070        0.80439713828496
N           -4.18570772345548        1.06075759176524        0.55362578663335
H           -5.94839132641836        0.59023244080656       -2.23956647997382
C           -5.53828468529670        1.22571518468783        0.11705064347787
H           -6.07520129820932        1.51017587828300        1.03213311968335
C           -5.55218668887249        2.43325073668955       -0.83806096229850
C           -6.29361302055621        0.02690830178822       -0.43380612116689
H           -4.99554060868335        3.22596451943079       -0.33652399571636
H           -4.98617908844449        2.19152059571271       -1.74570906363297
C           -6.95027923661379        2.94967162635962       -1.20520812518306
O           -6.36072414285776       -0.14958961800603       -1.77423322278221
H           -7.56543658224243        2.12567908731415       -1.58590059596880
C           -7.66073305100431        3.54653467047687        0.00721484723303
C           -6.82493293209610        4.00308913007421       -2.30589882734697
H           -7.05805450156412        4.33658608647769        0.44882060743737
H           -8.61677847279627        3.96971202415858       -0.29181442908031
H           -7.85101271178827        2.79062831403948        0.76436780267448
H           -6.35058180885187        3.59075336742591       -3.19460025379182
H           -7.80631327720601        4.37602122525559       -2.58805446328224
H           -6.22677494759549        4.84166200520736       -1.95694809978134
N           -6.84825412163357       -0.76257679658820        0.37741286130331
H           -7.37929237138892       -1.11584820956364        2.07815377439719
C           -7.68442704573832       -1.86180791631565       -0.05632763316413
H           -8.45646997498947       -1.49273019673683       -0.74554368060988
C           -6.94404260060458       -3.01027003433792       -0.74687118288632
C           -8.39232484698323       -2.41227073346630        1.19365967732161
H           -6.16902610338658       -3.40471885714513       -0.09536156225369
H           -7.65767702836444       -3.80116636880960       -0.96014678542554
H           -6.49866010396772       -2.66841368016424       -1.67736725974107
O           -8.03072691106485       -1.81366200840801        2.32166193145214
O           -9.18934231782498       -3.30697569195833        1.14663761082211
