42
 energy: -62.486133504478 gnorm: 0.000479871349 xtb: 6.7.1 (edcfbbe)
N           -1.50267278922379       -0.51655271809890       -2.05032482124211
H           -0.82188737063424       -1.15626303341827       -2.44080652749045
H           -0.99535034590906        0.28356729409460       -1.68129703431441
H           -3.16035063061769        0.30546677049786       -2.52286107743067
C           -2.27283796987671       -1.15312437083069       -0.98369173557907
H           -2.57781121442825       -2.14306915878287       -1.34731782050807
C           -1.51731664279830       -1.31088968329051        0.33448799916845
C           -3.55675459829548       -0.34395463749607       -0.80998525102695
H           -1.20074286162738       -0.33695853868664        0.70358468108522
H           -2.16732985683952       -1.76085354902340        1.07751209762476
H           -0.64050469423681       -1.94057862083320        0.19610133238629
O           -3.88572346822174        0.40225100374530       -1.87037455853619
N           -4.19332657909307       -0.46264461724845        0.26792925953983
H           -5.52227603538141       -2.05673434353436        1.34302565363253
C           -5.46352900562197        0.17712375414128        0.56947512432967
H           -5.46093074522940        0.29236019156364        1.66379899339726
C           -5.74123366150422        1.53224584545704       -0.08282833012600
C           -6.50126917185842       -0.86965258809734        0.22368592132779
H           -4.85376580167643        2.15788365021189        0.03495953258962
H           -5.90376453204391        1.37685176661217       -1.14822913059405
C           -6.95420506213631        2.24895096974489        0.52314224333843
O           -6.35798129913182       -2.05324043620569        0.85624965031201
H           -7.75750992117016        1.51792178313187        0.65556398307605
C           -6.62169631066444        2.86658968118153        1.88023117062524
C           -7.44148462630950        3.33580332742546       -0.43351709870558
H           -5.83150897822348        3.60753086795134        1.77515051517073
H           -7.49787389825406        3.35930561907937        2.29569251074693
H           -6.29223923093218        2.11305254379125        2.59155194783506
H           -7.75569121688033        2.90593858504394       -1.38148812490435
H           -8.28618157751171        3.86980472939220       -0.00410010632887
H           -6.64632615690486        4.05286742844216       -0.62736693822844
N           -7.37238548205100       -0.64748062563179       -0.65418880298929
H           -8.01081512025816        0.40595314190674       -1.96694701742459
C           -8.33914604604352       -1.63921205869909       -1.06088126114844
H           -7.87568472417358       -2.62017518152250       -1.22589327204689
C           -9.46373922669648       -1.79096732358291       -0.03038625528120
C           -8.95435205886116       -1.14547141894256       -2.37995170116165
H           -9.90975931032803       -0.82035604673368        0.17830527950891
H          -10.22675498641813       -2.45494985697243       -0.42666535334069
H           -9.06594046528994       -2.20547890665878        0.89256771430636
O           -8.63393921461828        0.10835670169465       -2.67292588952462
O           -9.67159837360788       -1.82324371245250       -3.06205235415962
