42
 energy: -62.486133514342 gnorm: 0.000479876960 xtb: 6.7.1 (edcfbbe)
N           -1.18749459826956       -1.24897912569734        0.83674238832388
H           -0.84335833095589       -0.48260258780033        1.40566195219321
H           -0.39333664741752       -1.81492678343224        0.56300513911507
H           -2.94455030486087       -1.49353550114611        1.58959372480617
C           -1.90002718762350       -0.74647368240568       -0.33584425179534
H           -1.44476389875758        0.14735807746267       -0.78430519864213
C           -1.99255246038894       -1.84209123112741       -1.40023124989262
C           -3.30632089370106       -0.38819040757097        0.11779439877108
H           -2.48292202087668       -2.72468088987820       -0.99335769058558
H           -2.55407264356052       -1.47757323401343       -2.25599278455881
H           -0.99702669817578       -2.12396988664272       -1.73699176101859
O           -3.71172978582857       -0.98938103958948        1.24691849951936
N           -3.99729836343410        0.41228656613615       -0.57046247991418
H           -4.84487119054934       -1.42539972888116       -1.21377391155363
C           -5.36205764317724        0.71653757394258       -0.18914575601072
H           -5.41229027055184        0.98055117838520        0.87495377442097
C           -5.76414518109301        1.92413199906247       -1.05669616918458
C           -6.28104521358838       -0.47523873049855       -0.39555117551643
H           -5.01181890267617        2.69396890639288       -0.87259022422403
H           -5.66824733227641        1.62098881941003       -2.10135301560799
C           -7.15572460489084        2.51614076532466       -0.83105554695728
O           -5.76552866486888       -1.58470642249842       -0.95719974072086
H           -7.90160825459535        1.76518736571041       -1.10148661371602
C           -7.37450577380135        2.92964349650550        0.62167538261317
C           -7.34000596565267        3.72297944205160       -1.75069254043991
H           -6.61871585352942        3.64999083492306        0.92896269160202
H           -8.35262358111703        3.39045354089072        0.73583181800575
H           -7.32446141812316        2.06945923160881        1.28356987972345
H           -7.18939686902154        3.44270757795660       -2.79052406176075
H           -8.34450230002257        4.12542931188623       -1.64748379344994
H           -6.62833223147694        4.50710552989589       -1.50008553730954
N           -7.50910313527454       -0.35689869554328       -0.13536797275465
H           -8.97496923326955        0.61417599083872        0.43364428625015
C           -8.42971762315653       -1.44813301393535       -0.36766565574694
H           -8.29404654951967       -1.88923923762275       -1.36339404913330
C           -8.28109429801831       -2.55289081075952        0.68564545046567
C           -9.85191376699045       -0.88264119661778       -0.26074672035008
H           -8.38493254300318       -2.13060962896695        1.68333847000082
H           -9.05294995022182       -3.30197139197128        0.53304276915213
H           -7.30239812046450       -3.01742421598223        0.59798861953461
O           -9.90432282261953        0.32862219418331        0.28031196062345
O          -10.82540813096665       -1.49218682094619       -0.60774816812331
