42
 energy: -62.486133499893 gnorm: 0.000481872113 xtb: 6.7.1 (edcfbbe)
N           -1.14907563806304       -1.74983441874076        0.44082756743470
H           -1.13882244392376       -1.77512254290232        1.45516772217120
H           -0.18962820344625       -1.79680556342406        0.11889475698021
H           -2.77459444085249       -2.58621559173454        0.00116535925096
C           -1.80230971634358       -0.53331003948540       -0.04183014242368
H           -1.57590046992636        0.35930673774369        0.55541735133898
C           -1.41027411676700       -0.27411811691586       -1.49659091218258
C           -3.30666258481548       -0.77644462912615        0.01120652964664
H           -1.63362166700958       -1.14627278204919       -2.10749597025299
H           -1.96778207807088        0.57681653371766       -1.87601869354777
H           -0.34640528459763       -0.05918800419803       -1.57018229177488
O           -3.62669457845713       -2.09923003137721       -0.05471624310246
N           -4.06286998434894        0.21071076970250        0.06788735153278
H           -5.23020864027602       -2.00196162697509       -0.66281387367529
C           -5.47890234173445        0.42941942012989        0.09581506649508
H           -5.67625041783592        0.91273103318683        1.05818293641604
C           -5.70265908301903        1.47763270282434       -1.02990674302420
C           -6.50143493013512       -0.68270185068865       -0.07567997007914
H           -4.87873569025768        2.18893267952020       -0.94727512019754
H           -5.60041692526502        0.96120401122093       -1.98809326933709
C           -7.02713670710666        2.24186574621196       -1.01451094717771
O           -6.19094312033151       -1.84757038294907       -0.65330123036719
H           -7.84891752641857        1.52662191032252       -1.09864636542910
C           -7.20610796836459        3.05139666038505        0.26642532924265
C           -7.07814854186640        3.17150767436824       -2.22696179212390
H           -6.38797188730029        3.75913408738950        0.38488007797124
H           -8.13944995856018        3.60731566579571        0.22802084195471
H           -7.23502816502559        2.40597108161626        1.13987491264524
H           -6.97041326134510        2.60930313488895       -3.15168526646973
H           -8.02892473813768        3.69741372351618       -2.25707636738661
H           -6.27915097345121        3.90869983448167       -2.17752314856739
N           -7.69210559909558       -0.38765939434872        0.23844251119870
H           -8.95888595719529        0.81584851431520        0.75987256228436
C           -8.77526428593871       -1.32353204310399        0.02840541688062
H           -8.73350715499911       -1.77773363829707       -0.96982181239480
C           -8.77888547048684       -2.44146850805529        1.07802069941454
C          -10.08860160123027       -0.54101725366440        0.16093939879910
H           -8.77394742859922       -2.01112875060654        2.07778354821085
H           -9.67282115430520       -3.04630525429587        0.95457591350770
H           -7.89884499757336       -3.06769537429058        0.95618952067060
O           -9.92958650787143        0.68447640623944        0.64724343987129
O          -11.15829901839126       -1.00301820840176       -0.12617385912250
