42
 energy: -62.486133522695 gnorm: 0.000479713909 xtb: 6.7.1 (edcfbbe)
N           -2.24336612086329       -1.51971042882414        1.56303730893188
H           -1.77807449201218       -0.72398341829147        1.98667691458023
H           -1.57111259110255       -2.27383675372233        1.48812645563435
H           -4.08130669297956       -1.32199317034962        2.12378079285693
C           -2.78301762606675       -1.16852729365103        0.25166770534826
H           -2.11796635663053       -0.53790874761594       -0.35409484934384
C           -3.11509840728340       -2.44338762715882       -0.52583833304679
C           -4.08540899620293       -0.41865083138306        0.48380084043798
H           -3.78354600507355       -3.07221748463868        0.05868288018917
H           -3.60034166808093       -2.18363078570094       -1.46188180878295
H           -2.20780493365213       -3.00362477529781       -0.74250722529069
O           -4.69445301901075       -0.72798220522304        1.63933671907773
N           -4.44849584400691        0.42933665411456       -0.36775799220954
H           -7.47223631475252        0.95686960602307       -2.12401772528847
C           -5.73464154125846        1.09649798736717       -0.36409860528996
H           -5.89343123455240        1.56818255821989        0.61960967030321
C           -5.68555816539130        2.17967119157735       -1.44614232232574
C           -6.86629817780475        0.09076222538402       -0.51483326017387
H           -4.70422538350108        2.65079281067794       -1.37003606481322
H           -5.71508361220972        1.70954051575019       -2.43421061837499
C           -6.77241255751101        3.25839248150260       -1.31009691041698
O           -7.69967805087275        0.19714380073486       -1.57356784063225
H           -7.72297610336793        2.79549315402187       -1.01754853371798
C           -6.39667410172177        4.26988193430551       -0.22883718406050
C           -6.97219690133682        3.97651587318364       -2.64455633184667
H           -5.48432097324210        4.79490959447918       -0.50358522312917
H           -7.18995274754919        5.00302791755435       -0.10273867790734
H           -6.23489036404664        3.77816286885536        0.72708180591377
H           -7.30138097991949        3.28838450328050       -3.42140624703441
H           -7.72141283619438        4.75849374910446       -2.54673974073723
H           -6.04008827628768        4.43491807168774       -2.96766097537116
N           -6.97914382479904       -0.83110975363555        0.33156228427452
H           -6.48468300340463       -1.55400542253261        1.96329259275045
C           -7.99066508902497       -1.85409113693928        0.24229029437994
H           -8.98497549358477       -1.43103373649926        0.04902398371914
C           -7.67123362485455       -2.88085274300058       -0.85071018772138
C           -8.01719006840069       -2.58312838144312        1.59477924309733
H           -6.66561666463275       -3.27233801545800       -0.70815550485180
H           -8.38408713964228       -3.69856232485092       -0.79276873995184
H           -7.73356033587049       -2.41380954363760       -1.83019582792255
O           -7.02246098255321       -2.25734346422591        2.40553267039672
O           -8.85512394779158       -3.39727533977255        1.87463986019924
