42
 energy: -62.486133514600 gnorm: 0.000479879954 xtb: 6.7.1 (edcfbbe)
N           -0.76888732830065       -0.25602840471388       -0.48660413823210
H            0.01542056201435       -0.80095763947521       -0.82358248796560
H           -0.58404658218525       -0.02363530645409        0.48541022121774
H           -1.84681062892212        1.23142219029399       -1.01450183035618
C           -2.01545021969138       -1.01374989859850       -0.58423357593747
H           -2.05130554331368       -1.44260469577188       -1.59527117777625
C           -2.16612232373124       -2.13332830415784        0.44222191665336
C           -3.16028373171409       -0.00450519322283       -0.49578328218262
H           -2.10105860682137       -1.72745532926811        1.44935649304987
H           -3.13685235244364       -2.60383594455377        0.32873857369300
H           -1.38517798581499       -2.87915274620155        0.30810794668726
O           -2.81414139279604        1.24245869858032       -0.85855729045429
N           -4.28255431551766       -0.41146152580227       -0.10915923365131
H           -5.31920257634207       -1.08877591245097       -1.90629182943149
C           -5.51848257831430        0.32582765569949       -0.00556947748798
H           -5.72905411322260        0.42823690682097        1.06348094771193
C           -5.57550971525174        1.70908140375208       -0.68156480168528
C           -6.58896753118380       -0.56481247475849       -0.60390313185512
H           -4.79508253630119        2.33668665810574       -0.25068961985682
H           -5.34982834398703        1.58446414725651       -1.74451442588607
C           -6.92476136944397        2.42219928897885       -0.53873838804619
O           -6.26516925494565       -1.20917330680713       -1.73980123232210
H           -7.71664542117794        1.76743640325535       -0.91570939844179
C           -7.23218300374123        2.76803439129581        0.91592277284883
C           -6.91109950755630        3.69581105905771       -1.38335401266387
H           -6.45374247342490        3.40946320865003        1.32469333916873
H           -8.18072365435328        3.29505499288753        0.98139058811465
H           -7.30293847054884        1.87280835046419        1.52741991393863
H           -6.73464402713617        3.46443356008561       -2.43148508432172
H           -7.86431450319171        4.21253293446892       -1.30393123806682
H           -6.12589484482089        4.36821572082304       -1.04362218573589
N           -7.70828324999160       -0.66324814550986       -0.03602842557272
H           -8.97608779839283        0.15110679473369        0.99094813622488
C           -8.77413583819220       -1.47041337584228       -0.58735725342631
H           -8.78767907593516       -1.44975188167433       -1.68443078686799
C           -8.65890326125218       -2.92496745515260       -0.11912981969929
C          -10.10039884284127       -0.89644394217239       -0.06697243068184
H           -8.58771667815702       -2.95967066312133        0.96594424227158
H           -9.53939148653226       -3.47565416240791       -0.43786075100814
H           -7.76988368440938       -3.38189918234847       -0.54664478623090
O           -9.94680088530413        0.02665244418475        0.87480427069493
O          -11.17139608349026       -1.26242713133701       -0.46421225226199
