42
 energy: -62.486133523435 gnorm: 0.000478427364 xtb: 6.7.1 (edcfbbe)
N           -2.26866434626526       -1.23644215725369        1.80140591484021
H           -2.30473608818780       -0.65323231068322        2.63081094258467
H           -1.32054763856615       -1.57758176088146        1.69815569928731
H           -4.03622778621748       -1.93686693491736        1.71639294647687
C           -2.68748087806524       -0.48663327139858        0.61954374706865
H           -2.29102132215560        0.53684996079083        0.57628888178794
C           -2.26618865543530       -1.24177358262619       -0.64109996804583
C           -4.21495277165600       -0.41233432961995        0.64654849967370
H           -2.65637897184634       -2.25685148163678       -0.61532856122266
H           -2.65711162662929       -0.73495477157495       -1.51798169946752
H           -1.18121977880804       -1.28525203315900       -0.71385131212960
O           -4.77700490359020       -1.43241588342946        1.31210863289788
N           -4.74088300328714        0.55819174412214        0.06069277565365
H           -8.33508143966743        1.43279309865132       -0.85074695106027
C           -6.08855364151685        0.96637923414107       -0.19994723853217
H           -6.27315161293430        1.80370840552546        0.49405498490292
C           -6.08333347931754        1.52350837187992       -1.65247359245442
C           -7.28059964549572        0.04256501249276       -0.01343680510891
H           -5.08708329907966        1.34162177453758       -2.05746445435441
H           -6.78618540723796        0.96038112572031       -2.27171582589680
C           -6.38016603695537        3.02544656164398       -1.75602117271956
O           -8.45487214040870        0.54893499667753       -0.48318440398725
H           -7.26237713758187        3.27253942079221       -1.14879891850228
C           -5.19859492654488        3.83830929819606       -1.23359357819383
C           -6.68121441321496        3.40134931274181       -3.20583536996379
H           -4.33255101892607        3.68857293428281       -1.87369464950320
H           -5.43888413643774        4.89901081781081       -1.21974091952538
H           -4.93025381605865        3.52862503746286       -0.22720887478183
H           -7.55793797907843        2.87196322698073       -3.57397282548742
H           -6.86705604256213        4.46935868438198       -3.29112053078746
H           -5.83666330471730        3.14876713839276       -3.84273192356185
N           -7.23586385837469       -1.05820453716305        0.58520830134531
H           -6.39773763014098       -2.22604400291554        1.83267927089463
C           -8.42436844111953       -1.85862964591345        0.76297333794775
H           -9.30543076625015       -1.24321206272733        0.98901343580381
C           -8.71730521301745       -2.69530514132839       -0.48810379505552
C           -8.18569382992866       -2.81745856817935        1.93648237707020
H           -7.83511450460707       -3.27011104521993       -0.76297694047655
H           -9.53822557881118       -3.37578536768362       -0.28008242427194
H           -8.98869007538483       -2.04365202754916       -1.31526144950423
O           -6.93301797997888       -2.86924647641889        2.35789741963345
O           -9.06776611787766       -3.47891402730229        2.41505199543964
