42
 energy: -62.486133518588 gnorm: 0.000478983368 xtb: 6.7.1 (edcfbbe)
N           -1.98253179611651       -1.83355472572051       -0.76492054509182
H           -1.88923505933176       -1.70404039755857       -1.76699918300081
H           -1.90666724099868       -2.82452166432246       -0.56777990646095
H           -1.25743407694402       -0.28832181578815       -0.03816394679887
C           -3.25603219348747       -1.29794536486149       -0.27912126940074
H           -4.07566150355098       -1.48300773218615       -0.98230117534341
C           -3.59927092167448       -1.93011103997201        1.07143680680858
C           -3.05587001405586        0.21076667129346       -0.02560096559743
H           -2.78865900105360       -1.75831461698202        1.77628177900266
H           -4.50890933244804       -1.48732401950248        1.46895246399903
H           -3.75044871996606       -3.00295908607502        0.96264650038297
O           -1.76801950724152        0.53614394441543        0.12516464520268
N           -3.89986288838383        1.11289200365372        0.20085181741233
H           -5.31460732931933        0.22308149891136       -2.21355724636234
C           -5.31208280707217        1.20696638094118        0.00608543017400
H           -5.72186512829944        1.46112371589854        0.99118105229638
C           -5.55530989623634        2.39896337690616       -0.94349223931288
C           -6.07109024241122       -0.01218843016410       -0.46988369692524
H           -5.09316644489673        3.26989450945277       -0.47828446405523
H           -5.02090266853605        2.22680089062963       -1.88407633585816
C           -7.03136539747825        2.68951341511864       -1.23883362948413
O           -5.87461955236955       -0.41418680227697       -1.75073425989162
H           -7.48478378243221        1.81399421819361       -1.71872842941885
C           -7.81370383753787        2.99382035378656        0.03613139680427
C           -7.12436107162257        3.86828951716819       -2.20717848957982
H           -7.32612975864093        3.78506128038040        0.60068606438690
H           -8.82030905991459        3.32004775919382       -0.21381633475938
H           -7.89405928190696        2.11148456063105        0.66502182908230
H           -6.57729886328014        3.66410972092410       -3.12529186556308
H           -8.16152473704269        4.06637753545913       -2.46578660919417
H           -6.70705091776920        4.76320601302319       -1.75134749691992
N           -6.90992518148446       -0.55587846965221        0.29566842840840
H           -8.04558684220959       -0.41298081220493        1.74602929455235
C           -7.73457223726354       -1.66131635588644       -0.13745232291432
H           -8.01789967328669       -1.57351749233481       -1.19429193108981
C           -7.03673776680039       -3.00910372210182        0.07828325103696
C           -9.00757062525830       -1.64713391638436        0.72274833029629
H           -6.71300018611591       -3.10067781998490        1.11308334426760
H           -7.73378504223951       -3.81083727228446       -0.14894314742741
H           -6.17117113879282       -3.09008149994944       -0.57482560206467
O           -8.92196608870330       -0.85664976506726        1.78703716521048
O           -9.97371488606236       -2.30816937456967        0.46673823475019
