42
 energy: -62.486143125558 gnorm: 0.000732931868 xtb: 6.7.1 (edcfbbe)
N           -1.33023266064007       -1.38562061285542        0.37492493366656
H           -0.77408843777454       -0.56801794265557        0.60161537678254
H           -0.69747239289836       -2.11700244724077        0.07497503469626
H           -2.85867104171264       -1.17613595896207        1.54863751585253
C           -2.29584200842226       -1.07520887827162       -0.67941710775927
H           -1.89731879204376       -0.43138268464748       -1.47474030851845
C           -2.82435356203274       -2.36786380855216       -1.30275870825479
C           -3.46275012534891       -0.36203560581146       -0.02769559139266
H           -3.21060761138056       -3.02595102937463       -0.52709397211535
H           -3.62467031851688       -2.12905323398136       -1.99643818274805
H           -2.03050767038897       -2.88475562588126       -1.83773562896713
O           -3.63116513306543       -0.63429770011360        1.28674609754282
N           -4.21245942637647        0.37507202837313       -0.71401048538691
H           -6.17700889633944        0.01440552087045        2.00129882241906
C           -5.36501167608864        0.99097656064288       -0.08654809409219
H           -5.09456852100049        1.39066373575499        0.90260830257439
C           -5.86195613370137        2.10825616215158       -1.00942163214711
C           -6.43405092333152       -0.06574211491731        0.07390669578287
H           -5.05558451637298        2.83233205702187       -1.13531459244939
H           -6.05651889266122        1.64079613998983       -1.97403559533318
C           -7.12809687553622        2.81450003011562       -0.51599577304867
O           -6.80265608330527       -0.36547536016741        1.37180256940921
H           -7.89279542994267        2.05813910081385       -0.30676117660817
C           -6.87494640218841        3.62355554326972        0.75515628640955
C           -7.65725974667295        3.73130315879656       -1.61676667180214
H           -6.09094165865165        4.35888737212713        0.58520248258939
H           -7.77952152719306        4.14999655976993        1.05105367342995
H           -6.57506664669975        2.98675264128803        1.58414511203396
H           -7.87997167070923        3.15866812127614       -2.51317642028929
H           -8.56795762483075        4.22995787213251       -1.29350961519245
H           -6.91849069712655        4.49027148635649       -1.86581302049716
N           -6.88366121796746       -0.64076968322224       -0.94001184762940
H           -8.57117705789959       -0.53732858153749        1.00717375045575
C           -7.84784875468345       -1.70762013958862       -0.98095985952350
H           -7.86817662579041       -2.03814323297813       -2.02591866445949
C           -7.51106543775018       -2.90645680347180       -0.08261050047848
C           -9.26965085316963       -1.23000194309176       -0.64651233454556
H           -7.54819202411329       -2.63912550357855        0.97122475050621
H           -8.22104668201817       -3.70837211160137       -0.26910979992955
H           -6.50870041502200       -3.25903234676964       -0.31603500122592
O           -9.41332600035914       -0.60121512241508        0.51967606102739
O          -10.20080308827890       -1.42995134953688       -1.37282170578876
