42
 energy: -62.486133513916 gnorm: 0.000479852262 xtb: 6.7.1 (edcfbbe)
N           -2.11812770045022       -1.43728895141839        1.41950429042538
H           -1.57757338278657       -0.62537295104157        1.69809167585653
H           -1.49795092168425       -2.23797187379924        1.40662427048534
H           -3.91456005892642       -1.04107336538760        2.07075176486067
C           -2.73051258868333       -1.23052913388320        0.10934332449768
H           -2.07548315538392       -0.73416185008749       -0.62005906971955
C           -3.19166336540807       -2.57382167521253       -0.45943872720536
C           -3.96023980558583       -0.36739518031325        0.32379109059898
H           -3.83996605367301       -3.07694483210015        0.25520607526853
H           -3.73860955881049       -2.41165252365571       -1.38350442788454
H           -2.33528565005811       -3.21289411915475       -0.66449689119582
O           -4.51737740553839       -0.48055599095006        1.53871370015688
N           -4.38293312155972        0.35595461356665       -0.61536100146716
H           -6.80160788263165        0.53985286358391       -2.53171308368906
C           -5.62120278790292        1.10352063614415       -0.45122105582155
H           -5.71264032043327        1.45440309264216        0.58410589706459
C           -5.61710073357060        2.28445860656452       -1.42143890231395
C           -6.73028463742480        0.09352235586177       -0.67194298574881
H           -4.77260490313384        2.92200497758700       -1.15237764202405
H           -5.41199329869273        1.92003298318109       -2.43321972767058
C           -6.90454677108610        3.11944849189030       -1.40374011031493
O           -7.22858354727224       -0.06743447815879       -1.91372360683055
H           -7.76840969712285        2.46628146024688       -1.57282258565377
C           -7.09781273256210        3.81682339829797       -0.05885875546801
C           -6.85699222806898        4.15450254641497       -2.52720531810347
H           -6.23220945074461        4.43160803528674        0.17866118568335
H           -7.97487168772372        4.45901376002170       -0.09302427530753
H           -7.24126497257993        3.09408796696098        0.73986059662595
H           -6.75159551415286        3.67485747597276       -3.49828460814486
H           -7.76896302368312        4.74636694385021       -2.53773796939756
H           -6.01403352144677        4.82717857243938       -2.38475577069861
N           -7.05510836168800       -0.61763866671625        0.31226298408749
H           -6.57855502966454       -1.14555903189723        1.98985166421016
C           -7.98379340801067       -1.71819565342989        0.26850926230571
H           -8.99308586058903       -1.37277434927411        0.01238495916720
C           -7.57781256619232       -2.83044355681861       -0.70582051304185
C           -8.01494921629784       -2.31481162854559        1.68737741543099
H           -6.55643125002060       -3.14672062517523       -0.50056867252728
H           -8.24516748598180       -3.67770567708823       -0.57475171515103
H           -7.63862037754757       -2.47563068816319       -1.73090030863472
O           -7.07334119773796       -1.84123918050046        2.49011375720641
O           -8.80232601229069       -3.15812860395720        2.02074899155772
