42
 energy: -62.486133511046 gnorm: 0.000479383840 xtb: 6.7.1 (edcfbbe)
N           -2.09452199483775       -2.37204351076334       -1.09953678378294
H           -1.12891487849663       -2.67735599081453       -1.09343015430119
H           -2.37236194771658       -2.24883119796931       -2.06952317786077
H           -3.79983488153139       -2.79369150572209       -0.37654519491585
C           -2.25027003978621       -1.10982051423769       -0.37890873095574
H           -1.72832154519539       -1.21575244571447        0.58052283866711
C           -1.70631353115149        0.11104407472501       -1.11683869248260
C           -3.74115878219277       -0.94998764169642       -0.06329068150216
H           -2.20004708592385        0.21335136006313       -2.08102791453196
H           -1.90989528067248        1.00129186099334       -0.53249309618511
H           -0.63340901014364        0.01730683638613       -1.27432833845915
O           -4.41563738905567       -2.10524920522298       -0.04906805907328
N           -4.14221194108596        0.19724268530869        0.24580745996769
H           -7.36374538669962        0.75238247265159        1.97440239319654
C           -5.46312341026840        0.70750224484889        0.46005685359918
H           -5.41998991179906        1.20295554052118        1.44175333068676
C           -5.68379791470586        1.78077114168336       -0.63235144611113
C           -6.64861706940929       -0.23049978674127        0.43792380823339
H           -4.78637666281322        2.39992781827615       -0.66860111314598
H           -5.76680539188416        1.24739026800225       -1.58064666553394
C           -6.91737053090254        2.66816769467293       -0.43596955267729
O           -7.61875139885473        0.01681938953149        1.40516645594747
H           -7.79490354025504        2.03649092612917       -0.25923605194820
C           -6.74627296622973        3.62912356390034        0.73989356124922
C           -7.17311346934522        3.46491183382069       -1.71438953722349
H           -5.90235525932759        4.29174373036614        0.56067132842407
H           -7.63929173734992        4.23807042038239        0.86175244450269
H           -6.56798125622506        3.10470193825492        1.67648051878097
H           -7.35635093084765        2.79567078977888       -2.55114594204396
H           -8.04206941854777        4.10766184454951       -1.59460975366059
H           -6.31348303045448        4.08806770462348       -1.95150478212743
N           -6.71857666126673       -1.14788842672881       -0.40231453079289
H           -9.04469001713525       -0.32447320227726        0.36013895546499
C           -7.75065993411212       -2.13760278416679       -0.54976959729690
H           -7.36903140564131       -2.84172537735961       -1.29807871386105
C           -8.07230488671907       -2.90418028338657        0.73981013678936
C           -9.04766609632477       -1.54718748050533       -1.12058562766396
H           -8.52082905911978       -2.25578538249791        1.48958388858766
H           -8.75910149670779       -3.71731391911366        0.51807945817768
H           -7.14985534221181       -3.31495425888138        1.14375108407169
O           -9.58073985507649       -0.54057164268997       -0.42738317914814
O           -9.56543891756546       -1.96970772651863       -2.11528235842994
