42
 energy: -62.486133509332 gnorm: 0.000480155439 xtb: 6.7.1 (edcfbbe)
N           -1.25382699114733       -0.83069309651306       -1.27817848953241
H           -0.52061699007426       -1.52179371275965       -1.38122134114133
H           -0.82104871572363        0.02566206101389       -0.94173728291212
H           -2.71659489890191       -0.15253880384636       -2.26936114583975
C           -2.26899083137130       -1.27934961240721       -0.32393021598381
H           -2.51333508728959       -2.32056427018045       -0.57253816371860
C           -1.85404059562325       -1.19590703642106        1.14193381167339
C           -3.52610079654593       -0.46453867961740       -0.59440174703549
H           -1.55652260803870       -0.17918494979827        1.38957141108136
H           -2.69724733934284       -1.46665379163201        1.76735006402604
H           -1.02193805809863       -1.86764291120170        1.34199214605580
O           -3.58633238968533        0.03888926441971       -1.85820884482648
N           -4.40528269952712       -0.36930827372866        0.29173005687880
H           -5.47914621750140       -0.38071188111589       -2.11290296938179
C           -5.63712281202380        0.38235875116452        0.17840830216624
H           -6.00661217047869        0.45829480133533        1.20574806371794
C           -5.49283706427486        1.79136020454734       -0.41813305153485
C           -6.64940467183457       -0.42998925166633       -0.59809386406257
H           -4.71874669996233        2.31739253649872        0.14594751804867
H           -5.15506720440443        1.72181005460603       -1.45451841583352
C           -6.79692695349759        2.59706078640958       -0.37831377145189
O           -6.34654904512905       -0.74379546111053       -1.86920939025185
H           -7.59194198382158        1.99774369590850       -0.83573045272382
C           -7.21278128974778        2.94256779705480        1.04917878741195
C           -6.62514314564704        3.87797843601739       -1.19413368825875
H           -6.41887177162510        3.49001599690966        1.55345642476875
H           -8.10378659046047        3.56543691979153        1.03659430471912
H           -7.43838424423887        2.04786294715886        1.62217307251052
H           -6.36487201917465        3.65067933041288       -2.22567883498984
H           -7.54753348261148        4.45335788949205       -1.19488025043942
H           -5.83658069852174        4.49522625298590       -0.76811213233349
N           -7.71964291587880       -0.77673963184712       -0.03056473359127
H           -8.95954171948078       -0.48947505603290        1.26296624138328
C           -8.72883416769479       -1.54439254679729       -0.72582892145291
H           -8.84126888262972       -1.22827728933808       -1.77086654668883
C           -8.40696378034987       -3.04254115044604       -0.69336124334840
C          -10.05860092614592       -1.31798507690524        0.00770368295367
H           -8.24370682769593       -3.36380330583539        0.33337445172767
H           -9.23988920323324       -3.59839662394280       -1.11462553748191
H           -7.50855972641032       -3.24003728707787       -1.27298197650678
O           -9.91937724510455       -0.69571260680531        1.17231244115527
O          -11.11561980490788       -1.68569113169817       -0.42399269088098
