42
 energy: -62.486133508304 gnorm: 0.000480531867 xtb: 6.7.1 (edcfbbe)
N           -0.71301840311870       -0.12903878239093       -0.46550461271032
H            0.07638134577894       -0.55984669065451       -0.93071604235191
H           -0.51739511202852       -0.12610042953294        0.53201607721725
H           -1.80888157234166        1.41718863424451       -0.59809830186927
C           -1.94694885326372       -0.86859154896446       -0.72688205774337
H           -1.97852703283606       -1.07370586830849       -1.80568942443426
C           -2.06976258615253       -2.18304520221348        0.04197622554214
C           -3.10923693976106        0.07874282223362       -0.42899489025353
H           -2.05145518590919       -1.99210960584670        1.11298389381584
H           -3.00799442711070       -2.67199561721144       -0.19867192700544
H           -1.24658054286627       -2.84736175159921       -0.21388370263525
O           -2.77691641687230        1.37586991238193       -0.44683735871808
N           -4.23508256486448       -0.42111619526194       -0.18148900514814
H           -5.14627417558338       -1.60084825443341       -1.30730927460733
C           -5.49220123153554        0.26014486568613        0.02754376496948
H           -5.63572097389224        0.38378056820310        1.10562936915917
C           -5.61394321598967        1.63106165138413       -0.66751001008696
C           -6.55613960950374       -0.69371067664848       -0.49463368025953
H           -4.82827055402151        2.27674067229303       -0.27456723196130
H           -5.42164412285276        1.48415291907663       -1.73435740892643
C           -6.96012139960919        2.33993063791288       -0.49685327186369
O           -6.12363436816859       -1.64872081401520       -1.32849752900190
H           -7.75094135172490        1.70361131780971       -0.90255738170897
C           -7.26712023049987        2.63039433885101        0.96970081273315
C           -6.94044352312989        3.64500996699251       -1.29214240390054
H           -6.48217125649411        3.24525182004351        1.40653514510629
H           -8.20927306672017        3.16624835006933        1.05464977144067
H           -7.34811032312133        1.71057613264598        1.54244617101756
H           -6.74453270953126        3.45417539846302       -2.34476555540938
H           -7.89927337235924        4.15055515619518       -1.20987534033194
H           -6.16694246026344        4.31061568691607       -0.91407972040903
N           -7.75541207149223       -0.56067253503528       -0.12815396857180
H           -9.09536200518069        0.46097233252771        0.59396256033575
C           -8.79420843014490       -1.43816000590751       -0.62372248341947
H           -8.68633491135589       -1.63742842982510       -1.69737212150508
C           -8.80569523607645       -2.77457385724641        0.12733089154557
C          -10.13990199286654       -0.74044907634715       -0.38213449099534
H           -8.87632037830230       -2.59723268950559        1.19856480112075
H           -9.66222963912065       -3.36004218556852       -0.19476032773501
H           -7.89133148037568       -3.32379552079619       -0.08215286950963
O          -10.05118416731984        0.33464855615014        0.39170813922634
O          -11.17603471074377       -1.14315185822800       -0.83390022115802
