42
 energy: -62.486133517612 gnorm: 0.000479362210 xtb: 6.7.1 (edcfbbe)
N           -0.79850813290421       -0.24126475944625       -0.81495969177289
H           -0.03127478541327       -0.81562991154058       -1.14185930979838
H           -0.51848430388808        0.16856652372217        0.07206755307978
H           -1.98914565332833        1.09771477405026       -1.46480667231161
C           -2.01063928047131       -1.03734191764970       -0.63174061296722
H           -2.13120469198378       -1.65024534201879       -1.53575189808106
C           -1.99986800139974       -1.94728439852378        0.59390710046596
C           -3.18826454877226       -0.06107572741759       -0.60446803200438
H           -1.84036087830278       -1.35820782224773        1.49464755204163
H           -2.95659918092926       -2.45080690247783        0.68291235011110
H           -1.20788215511918       -2.68863983806385        0.50917059671127
O           -2.93648861536982        1.10855739148296       -1.21382884386340
N           -4.24921436386096       -0.43006915665933       -0.04317897903940
H           -5.19707375211699       -1.38603755276935       -1.64540330543956
C           -5.51065638624287        0.26323347303954        0.05043541247887
H           -5.72679748497515        0.34336152596849        1.12055440247720
C           -5.59423723684684        1.65991078458820       -0.59659504334818
C           -6.55866781094466       -0.64792183643185       -0.56044742275711
H           -4.80011615015874        2.27513875118350       -0.17074403837467
H           -5.39652429802852        1.55957836767577       -1.66653291082951
C           -6.93482543127466        2.37600298835525       -0.40466534412085
O           -6.16189707293407       -1.44145921220535       -1.57123178817020
H           -7.73574643998013        1.73731800244993       -0.78795547856524
C           -7.21528520423864        2.67995650715139        1.06473766416447
C           -6.92959487435350        3.67396240415261       -1.21154564215924
H           -6.42075643332825        3.29487196512280        1.48329096989356
H           -8.15341279434779        3.22087493943410        1.16046180159063
H           -7.29268482212086        1.76695283871502        1.64864741253010
H           -6.76211043100251        3.47277842188795       -2.26718634697217
H           -7.88301335242216        4.18620391649336       -1.10904804512498
H           -6.14263725084005        4.33820238335338       -0.86000769400355
N           -7.73767293775437       -0.61639161831947       -0.11824910497400
H           -9.05446651635625        0.30180708636980        0.75894043851328
C           -8.78579220455313       -1.43302493208834       -0.68956940679241
H           -8.71390245331349       -1.49397892260630       -1.78282123347306
C           -8.75931020908364       -2.85208442303464       -0.11123916043521
C          -10.12701932648327       -0.78395825074747       -0.31737304882494
H           -8.78657408979818       -2.80952345111253        0.97570025437480
H           -9.62485585147270       -3.40240413187398       -0.46914368290067
H           -7.85086303332832       -3.36133831970782       -0.42304253223953
O          -10.01608436910723        0.19364868276444        0.57375670399485
O          -11.17567845154666       -1.14197909579144       -0.77689992164787
