42
 energy: -62.486133515163 gnorm: 0.000479727989 xtb: 6.7.1 (edcfbbe)
N           -1.64945123824937       -1.33052295372525       -1.09992971567115
H           -0.98658425302776       -2.09360359229376       -1.03873901981162
H           -1.11958696145709       -0.46334794698642       -1.07524584576281
H           -3.16893121881792       -0.83953451889494       -2.13829517259448
C           -2.59319981127039       -1.36505337374170        0.01786451958982
H           -2.94448760651091       -2.40042818264995        0.11596587651385
C           -2.02415223685855       -0.89887509528597        1.35448080740959
C           -3.80459071367692       -0.54081160588985       -0.39105476872052
H           -1.63812056940797        0.11450003125045        1.26444840350418
H           -2.81403400909089       -0.89814876009383        2.09742649936381
H           -1.22109362880428       -1.55813688707843        1.67738569622088
O           -3.95221734002127       -0.41192784815457       -1.73364585654351
N           -4.55743236227402       -0.06475719477853        0.49107796254936
H           -5.88132668263992        0.13667370212035       -2.19724672560980
C           -5.76947710313434        0.68256398782710        0.21088599930977
H           -6.19872728448761        0.87865910690033        1.19856889358125
C           -5.48760821001601        2.01337981719997       -0.50140788151085
C           -6.76071217332007       -0.19024457034391       -0.53216753984371
H           -4.83123374201315        2.59858711212786        0.14698137419058
H           -4.93772689810752        1.82668248919899       -1.42837561406410
C           -6.74833981472160        2.82699390740834       -0.81747199013816
O           -6.69480852256766       -0.27498819245963       -1.87075798897528
H           -7.41919978056639        2.22229551221366       -1.43777398254991
C           -7.49799418947431        3.22470932555607        0.45162471119250
C           -6.35665000026709        4.07398141530225       -1.60971268740263
H           -6.83488323628057        3.74692085439611        1.13802736515833
H           -8.32436084031920        3.88668558828462        0.20373280479346
H           -7.90560156465657        2.35234068606787        0.95499039190025
H           -5.84216424460226        3.80537102210062       -2.53020264090448
H           -7.24014074404333        4.65138807087039       -1.87028693898122
H           -5.69651669344750        4.70577622254112       -1.01895812852008
N           -7.58165252867860       -0.85288638047698        0.15895284417591
H           -8.42138526901033       -1.15443437005668        1.73327876082867
C           -8.52945577071827       -1.76291634793749       -0.44471546798068
H           -9.02478898839839       -1.31732505984854       -1.31644023697538
C           -7.86397929649434       -3.07628228312941       -0.87160734428607
C           -9.59149891730690       -2.08136422027860        0.61815075963902
H           -7.32204676525996       -3.50547744777777       -0.03106106822437
H           -8.62847383658193       -3.77534988638338       -1.19860304847169
H           -7.16852634501382       -2.89273411046639       -1.68672429178694
O           -9.27835672146550       -1.63419615761161        1.82788565048796
O          -10.59486723927858       -2.69373572728121        0.37781862089379
