42
 energy: -62.486133513233 gnorm: 0.000480131241 xtb: 6.7.1 (edcfbbe)
N           -0.71323238461481       -0.06741848705857       -0.29084149887740
H            0.12299796688192       -0.34637975751937       -0.78921014466125
H           -0.61574038876213       -0.37971587757047        0.67123815768095
H           -1.83378617412434        1.49807018090349       -0.10837562670374
C           -1.90585318536092       -0.66412553667151       -0.88958138663801
H           -1.84443416992476       -0.48956082340002       -1.97217516934461
C           -2.06991376447703       -2.16101175906018       -0.63332014372261
C           -3.09933552230125        0.14310596615703       -0.39227800059261
H           -2.20255220986083       -2.35029776571975        0.42996510350235
H           -2.93800083764762       -2.53557966209389       -1.16557245289392
H           -1.18878576857361       -2.69794994040466       -0.97957736241072
O           -2.80686241928593        1.40568049222614       -0.04901339647679
N           -4.22845936513198       -0.40486139052206       -0.33350085598350
H           -5.08279485187458       -1.99472356439583       -0.07873759247165
C           -5.46570119417416        0.25137171601313        0.04964866634712
H           -5.42636682250325        0.50271421738029        1.11865862022664
C           -5.68430466360815        1.53746392379817       -0.76391030423569
C           -6.53079657635749       -0.82236400511978       -0.13475456560962
H           -4.84370733782623        2.19475908060118       -0.53477642135527
H           -5.62360765617838        1.27276869420608       -1.82234798686433
C           -6.97913792524581        2.32002340290682       -0.52474782563599
O           -6.05972634912983       -2.07622383658788       -0.05698248289418
H           -7.79753221850305        1.79333963837280       -1.01791012110059
C           -7.30730924452585        2.46786996845547        0.95750203596155
C           -6.84689870394132        3.69792109019869       -1.17377217864134
H           -6.47182592417773        2.91751635261089        1.49070925138576
H           -8.17656415989823        3.10898108303586        1.08438787090399
H           -7.53051767119340        1.50114872540786        1.40082132805152
H           -6.59468858096438        3.60340555720467       -2.22736537630685
H           -7.78363733323914        4.24404288493510       -1.09488950435010
H           -6.06786095797901        4.27925647743612       -0.68435545333152
N           -7.73697828154561       -0.54918060224260       -0.38232148067523
H           -9.21637160864054        0.58768876062559       -0.48729756384111
C           -8.69841703208339       -1.61912660543176       -0.56181096362693
H           -8.33809354816951       -2.36614712175585       -1.27946970653228
C           -9.03187041784946       -2.32603038841344        0.75898696472819
C           -9.99682232871083       -0.99721693433632       -1.08566166274375
H           -9.37118988963272       -1.59967326193136        1.49555596900330
H           -9.82009588582318       -3.05399599673995        0.58838875384777
H           -8.14904194292220       -2.83287028816622        1.13925043323577
O          -10.07926552745582        0.31112277752117       -0.86932659424630
O          -10.87110840431089       -1.63582327564926       -1.60229433378098
