42
 energy: -62.486132314638 gnorm: 0.000617731625 xtb: 6.7.1 (edcfbbe)
N           -1.21689092444847       -1.44447377505287        0.78117249348533
H           -0.20915682729364       -1.46982730136606        0.68819291693542
H           -1.55353798094547       -2.40214875711120        0.72863652123255
H           -2.56103898176305       -0.66598827672851        1.91855334361905
C           -1.82560120365451       -0.63930966076831       -0.27561866237520
H           -1.24128223860542        0.28518991428606       -0.36327160048035
C           -1.89356599252222       -1.31820111282066       -1.64298698166754
C           -3.20820246859576       -0.22744137594209        0.21259460716166
H           -2.41080217843428       -2.27389362821799       -1.56735555058878
H           -2.43621458369249       -0.68144800530949       -2.33405351332252
H           -0.89210309792901       -1.49497382108538       -2.02945377980872
O           -3.38867083402552       -0.30584292886493        1.53915771018217
N           -4.06395658075375        0.18785462131308       -0.61670316323573
H           -4.84122353200575       -1.65177341590451       -0.78982145132304
C           -5.38594437575523        0.59087564577638       -0.17747534046186
H           -5.37983583780790        0.90270559095464        0.87619311119950
C           -5.76220419346413        1.77975784816166       -1.07954350848507
C           -6.33068723174221       -0.59406619147101       -0.28833762093983
H           -4.99023093940507        2.53681646972433       -0.91966210524085
H           -5.67607197131838        1.44123244869023       -2.11370902518920
C           -7.13571039741508        2.42058236961985       -0.87341459058140
O           -5.77288001876862       -1.79225906450925       -0.55224510751957
H           -7.89939166576420        1.71371217275901       -1.20352193234211
C           -7.38955096582528        2.78209573838351        0.58729638515864
C           -7.23737084860324        3.67042012119770       -1.74747179963292
H           -6.60892506589485        3.44505317953068        0.95567644516353
H           -8.34483285201834        3.29217254421821        0.68593532531091
H           -7.41181178627487        1.89095021491981        1.20854061290513
H           -7.05262713252216        3.42724422092368       -2.79107867148487
H           -8.23053672241563        4.10527926147406       -1.66857014956372
H           -6.50998385907826        4.41709383311142       -1.43486718356296
N           -7.57716467579231       -0.42863577877096       -0.20343030147430
H           -9.10350819973442        0.60584948373281        0.09582644520641
C           -8.48413039585591       -1.54907895926998       -0.32870304124512
H           -8.24555049626571       -2.16874935410944       -1.20220186822885
C           -8.47419909442788       -2.43644801444780        0.92289676572459
C           -9.90113252672892       -0.98385507118121       -0.48307034024654
H           -8.68253953554521       -1.83593082470086        1.80654228113331
H           -9.23718665564673       -3.20381391376833        0.82579407804877
H           -7.50079369582765       -2.90676519112419        1.03523224633877
O          -10.00821764853685        0.28998889524599       -0.12338149898015
O          -10.83092504687051       -1.64197600524740       -0.85935742030376
