42
 energy: -62.486133510710 gnorm: 0.000480071328 xtb: 6.7.1 (edcfbbe)
N           -2.31465369271914       -2.32330960609572        0.85832018900346
H           -2.50518919231182       -2.23326856805054        1.85125043683630
H           -1.39029280913014       -2.72522388339056        0.75382332834290
H           -4.11391963268096       -2.54352815734561        0.13351021556550
C           -2.39105875467454       -1.02071462579835        0.20052072798794
H           -1.90599303915749       -0.20731949498432        0.75733065989241
C           -1.77023815482603       -1.11312551161985       -1.19421183924694
C           -3.86734249092158       -0.68514244403992        0.05238223457731
H           -2.25125186326789       -1.90370259200429       -1.76674183770364
H           -1.89724156082273       -0.16791567883891       -1.71355082809963
H           -0.70737924798488       -1.33361201345242       -1.12143494158444
O           -4.66857066015237       -1.75837315070335       -0.05139571192301
N           -4.20783075944280        0.52096504395236        0.00153178454230
H           -6.17333800377725       -0.14055870748024       -2.22231457444129
C           -5.55931544796987        1.01151157023173       -0.14658566934783
H           -5.78954302449219        1.49611670482801        0.80977103922658
C           -5.54949322727882        2.07792765852680       -1.25306856231281
C           -6.61916910501624       -0.04792072350454       -0.36319610672911
H           -4.82259522389131        2.83620282669980       -0.95839602542561
H           -5.17851834413813        1.63533970206711       -2.18409795630755
C           -6.91017503298334        2.73838286379634       -1.50535334940709
O           -6.80316362397786       -0.53480517597070       -1.60660398026237
H           -7.63726676447219        1.97118304994079       -1.79510664483955
C           -7.43466711784442        3.44357578613750       -0.25691756852722
C           -6.77976556131243        3.73480714644645       -2.65691239582032
H           -6.69410710330285        4.14315012904703        0.12452653895726
H           -8.33927265368964        3.99814872226958       -0.49505628336183
H           -7.67610660763665        2.72773078367762        0.52429416545477
H           -6.42039162046097        3.24416202714434       -3.55925735833829
H           -7.74246809691196        4.18909359005340       -2.87746145681978
H           -6.07973524614741        4.52500322163677       -2.39440497827746
N           -7.27720425613746       -0.44671800419532        0.63523657626248
H           -7.82027912032502       -0.23079651452992        2.34439948255555
C           -8.29891262140458       -1.46332678716693        0.51555023567665
H           -8.93079627217948       -1.30300612796244       -0.36707578727258
C           -7.69668875059346       -2.87073791277299        0.44303770203293
C           -9.17017795077490       -1.37874848184789        1.77575568829803
H           -7.05330203939559       -3.04130474110987        1.30346590510175
H           -8.49770168699754       -3.60442998667584        0.44180796879866
H           -7.10559438631865       -2.96947890406440       -0.46303897513585
O           -8.64857539337792       -0.60857190945539        2.72459880287932
O          -10.20690517409620       -1.96968677335180        1.90000389403090
