42
 energy: -62.486133513512 gnorm: 0.000479254813 xtb: 6.7.1 (edcfbbe)
N           -1.90437170784237       -1.24782653020977       -0.33645342717659
H           -1.30999876941087       -2.04733586140637       -0.15524977124673
H           -1.36443095308878       -0.41077367631588       -0.13336801071459
H           -3.12400902273976       -0.65192147548670       -1.69739071320159
C           -3.10011583592530       -1.28500373734274        0.50737168408304
H           -3.50184362996416       -2.30542586158838        0.45851656204899
C           -2.86730912885928       -0.91053239471204        1.96793497002305
C           -4.14369995827151       -0.38775161422384       -0.14565331293338
H           -2.44554237481205        0.09022963827819        2.03690668124598
H           -3.81586904948913       -0.91993419994224        2.49273552111727
H           -2.18590240046129       -1.61667853164583        2.43803453700286
O           -3.96751700361758       -0.20975998854906       -1.46830531783639
N           -5.08319911969133        0.05661994663635        0.55771322955880
H           -8.20431549565729        1.26428355304812       -1.28347673446096
C           -6.18029073180360        0.84769068312219        0.05794106583287
H           -6.52905081214584        1.41402352127707        0.93562927652015
C           -5.87079701406059        1.83907616623213       -1.08214736383785
C           -7.30280488492962       -0.11401665202182       -0.29158969912070
H           -4.79786547102329        2.03245139962841       -1.08065787049924
H           -6.10101592525175        1.37442688684956       -2.04450746246576
C           -6.59563858213556        3.18786503259565       -0.94149781454099
O           -8.34271166220386        0.34598487338146       -1.01836745987050
H           -7.62607565071599        3.03254669410842       -0.59298683031018
C           -5.88851345147022        4.06794267038650        0.08769842606009
C           -6.64867202429956        3.89898066234051       -2.29283458997310
H           -4.88690986063243        4.31661099524925       -0.25647864559220
H           -6.43806037740620        4.99392587327459        0.24120909227656
H           -5.80347340718220        3.55747221086083        1.04412292531845
H           -7.19795619864605        3.31115358087448       -3.02602846658277
H           -7.13712610106202        4.86594818658354       -2.19612687711207
H           -5.64191495184987        4.06049820798802       -2.67141229576772
N           -7.22490673918334       -1.29231229503532        0.13590267274526
H           -6.34652986483690       -2.41515591182937        1.18718479669166
C           -8.20510782274856       -2.31988830588726       -0.10393768623965
H           -9.20860747525187       -2.00174025896682        0.20703254238953
C           -8.25762691498209       -2.75851075914437       -1.57068713161214
C           -7.78418483707467       -3.52328415610043        0.76054462999676
H           -7.25663796756685       -3.00956118622259       -1.91611305654926
H           -8.89448165296466       -3.63413922943892       -1.65816899280931
H           -8.65525901273148       -1.95663082830794       -2.18715858626805
O           -6.64010920066179       -3.33619427511935        1.40508484450184
O           -8.42573823858086       -4.53537869563039        0.82796947046531
