42
 energy: -62.486133518335 gnorm: 0.000479352492 xtb: 6.7.1 (edcfbbe)
N           -1.44864274416029       -0.46721603615488       -1.95231413607676
H           -0.66162983362078       -1.03553380504906       -2.23991613318410
H           -1.08915919949244        0.44958472471196       -1.70101298415442
H           -3.21597899949081        0.01638610740719       -2.54522558589167
C           -2.13730804716208       -1.06143134135039       -0.80861518118397
H           -2.28043143450020       -2.12663909997865       -1.03488139089550
C           -1.40175161562038       -0.92293512364594        0.52272093082459
C           -3.52713272314728       -0.43712061079237       -0.75056829179566
H           -1.22039536092107        0.12751676777233        0.74118655566991
H           -2.01038647273530       -1.33526503575553        1.32033965592849
H           -0.44899613209354       -1.44737984838246        0.48722027730288
O           -3.95271848348192        0.08935313033058       -1.90392170288088
N           -4.17266470778560       -0.48019833446988        0.33160348953966
H           -5.21509672555190       -2.30437076416793        0.35257941220735
C           -5.52549376502849        0.04000290873817        0.44912955039035
H           -5.71742239618270        0.05326824735288        1.53252610244160
C           -5.74229448342752        1.44968450933614       -0.11430549675684
C           -6.47933069511990       -0.97699972718003       -0.14423937299016
H           -4.82108815173567        2.01936717745433        0.02846013831411
H           -5.92651738738229        1.37100935308776       -1.18544058346037
C           -6.90223000950478        2.19229565388685        0.56049703317387
O           -6.10112844314934       -2.26758781395709       -0.04081826495348
H           -7.72729547355405        1.48789983559467        0.69983976749247
C           -6.48744581990438        2.74104499819284        1.92454857159729
C           -7.37911125656818        3.33621917382422       -0.33256805371526
H           -5.69690743378454        3.48025668075433        1.81004224398238
H           -7.33305402117669        3.21938686067881        2.41323422008688
H           -6.12319241775236        1.95076786459646        2.57645755090341
H           -7.72810134954883        2.96373124071484       -1.29237374973591
H           -8.19721655416822        3.87254113102712        0.14225021093803
H           -6.56787803275641        4.03946166743592       -0.51075293587079
N           -7.56634405627005       -0.60840024300281       -0.65754434804772
H           -8.50793061267828        0.70473225126402       -1.47179631768812
C           -8.51014280645060       -1.54739314530868       -1.21792574446920
H           -8.01140962834810       -2.36012457116815       -1.76107362912021
C           -9.40649023352862       -2.15394521229354       -0.13301481534735
C           -9.39587021539201       -0.76447998729103       -2.19946049482036
H           -9.87954203138373       -1.36176544290243        0.44393764345424
H          -10.17581235974073       -2.76111049209519       -0.60155178141183
H           -8.81264688936175       -2.77317415796459        0.53467952087307
O           -9.22104432793650        0.54959562633729       -2.13650104040591
O          -10.18095794687536       -1.29306090460625       -2.93649573298007
