42
 energy: -62.486132267696 gnorm: 0.000626864693 xtb: 6.7.1 (edcfbbe)
N           -2.03756900656289        0.12555745741630        0.77722838318376
H           -1.26909165547003       -0.25007885010583        1.32384607299854
H           -2.61824793713587        0.68515540817112        1.39324317952591
H           -3.69092355315099       -1.08948366262170       -2.05834447997879
C           -2.84389728647046       -0.96056232971466        0.24117659638211
H           -2.26119670095581       -1.42450068588188       -0.56961512081370
C           -3.20948299360878       -2.03752262651929        1.27377275755785
C           -4.11137657008947       -0.35717976115206       -0.32619925794265
H           -3.78925398564722       -1.58702057861174        2.07475912448495
H           -3.79794485315456       -2.82955719971692        0.81912883248818
H           -2.30375807169126       -2.47497175881443        1.68970911886266
O           -4.39048615241755       -0.57958379080721       -1.63098014144418
N           -4.84959436472308        0.29913721279125        0.45139422480054
H           -8.27580418287945        1.28156698292135       -0.94855489827924
C           -6.05379124620938        0.95635990291532        0.00776385174246
H           -6.32682774922452        1.62139786856424        0.84231254543041
C           -5.90461600157954        1.80124658567395       -1.27644548211707
C           -7.17864158696973       -0.05278440194867       -0.10348455543661
H           -4.83929069064999        1.93188084653968       -1.47153842236890
H           -6.31552992584715        1.24961011091285       -2.12600630146568
C           -6.54438679388730        3.19485343397128       -1.18180527448147
O           -8.34008429561463        0.36534136230476       -0.65060438696969
H           -7.53118599341477        3.12795282772347       -0.70239417025113
C           -5.67694997661007        4.12681602087581       -0.33827634460260
C           -6.73333547654709        3.77615155885041       -2.58212436046382
H           -4.71444775399360        4.28111820468025       -0.82060908986061
H           -6.16043841680375        5.09365608973606       -0.21825714777304
H           -5.49795946427075        3.70787470983355        0.64891147951536
H           -7.39404362371417        3.15169459607429       -3.18056038831667
H           -7.16402351377121        4.77311598595507       -2.52625141412224
H           -5.77496142465131        3.84542501210912       -3.09150424572356
N           -7.00910159432723       -1.21960256859699        0.33234132783874
H           -6.09660558538779       -2.28703052803676        1.43843411805843
C           -8.03498353728798       -2.23328793115168        0.26893761484614
H           -9.00738278398109       -1.85025344969646        0.60539662846009
C           -8.19113511648549       -2.80244133135664       -1.14466924366791
C           -7.60256230083635       -3.36406220555170        1.21672747902300
H           -7.22064729359766       -3.11287112758531       -1.52689984263147
H           -8.85363434759014       -3.66277303252070       -1.11144347668456
H           -8.60787767906648       -2.04828426051254       -1.80718075193334
O           -6.41208817594800       -3.16455111123483        1.76831421232006
O           -8.27103158830661       -4.33953453957030        1.41928594428039
