42
 energy: -62.486133518682 gnorm: 0.000479197168 xtb: 6.7.1 (edcfbbe)
N           -0.74349539413673       -0.16440811927819       -0.10838609492599
H            0.11011955928750       -0.22882724907429       -0.64896369573511
H           -0.65104154390783       -0.79399469404599        0.68415472867255
H           -1.90521970818449        1.18139658327148        0.63363408604755
C           -1.90558243151126       -0.54092216970301       -0.91229950244754
H           -1.80798838590663       -0.04252213727650       -1.88496966830736
C           -2.07200179571561       -2.04286437004512       -1.13473371063495
C           -3.13090308625388        0.06355982151344       -0.24248954230254
H           -2.11708651962398       -2.56257009867759       -0.17894949323332
H           -2.99634763886996       -2.22533939151477       -1.67246307835821
H           -1.23679346628630       -2.43762067686013       -1.70933332798518
O           -2.87848021434906        1.08658061890199        0.58981721545662
N           -4.27456245052200       -0.38955227181808       -0.50729429672006
H           -5.22455429095452       -2.05196789737187        0.78885938445607
C           -5.46068901730700        0.19911734679672        0.09039585054116
H           -5.27473526339015        0.44328080727338        1.14860925272324
C           -5.86966513642269        1.47356806609734       -0.65669940260374
C           -6.51600548484739       -0.88272975654431        0.02982269778625
H           -4.98498218736231        2.10670744609155       -0.74971834685440
H           -6.18507257453579        1.18085848273606       -1.65875106554219
C           -6.98410977523046        2.26634301849685        0.03591763925946
O           -6.17419957577811       -2.05390852792933        0.60853142176587
H           -7.74759916789928        1.56339459363555        0.38058054268674
C           -6.44683424341881        3.03991052171310        1.23842320151841
C           -7.62434358182060        3.23410601576431       -0.95775595169350
H           -5.70537849115382        3.76925503524370        0.91855138245694
H           -7.25422003790821        3.56917962108742        1.73918215738498
H           -5.98020153200632        2.37551963524117        1.96120132513505
H           -8.06488180741540        2.69859388967306       -1.79507736167822
H           -8.40765769984026        3.81192000551136       -0.47299659396284
H           -6.87926436578246        3.92630254162079       -1.34478819918665
N           -7.59892247752137       -0.70294895934843       -0.58218163263593
H           -8.57939628648755        0.28234615240995       -1.72589724334468
C           -8.60288256612324       -1.73360320994319       -0.70077480040687
H           -8.16222901946170       -2.70418104367964       -0.96203981608117
C           -9.41331963254522       -1.89162487156007        0.59036945797818
C           -9.55800585480936       -1.29938352798927       -1.82400897048169
H           -9.82853508515243       -0.93100709148062        0.88926680392385
H          -10.22595940606883       -2.59205346173032        0.41980711741550
H           -8.77323628325474       -2.26524172290833        1.38563125957424
O           -9.35346707646064       -0.05512003483619       -2.23790544885125
O          -10.41646026667140       -2.01157476964632       -2.26534325195277
