42
 energy: -62.486133513231 gnorm: 0.000479922469 xtb: 6.7.1 (edcfbbe)
N           -2.70665898714436       -1.79890318272496        1.75023045062537
H           -1.82261184417902       -2.28323597135948        1.84544556734317
H           -3.44902699325915       -2.48902048115549        1.84515174403609
H           -3.79770214156358       -0.39788892181100        2.38926887214280
C           -2.80716077473137       -1.14049697250556        0.45027629696680
H           -1.90014127455267       -0.53767164576614        0.31363107044086
C           -2.96699814610138       -2.09241233405453       -0.73471750504134
C           -3.98805439780352       -0.18740082176398        0.53534560376448
H           -3.84359250994307       -2.72023003824437       -0.58790316121702
H           -3.10304935606405       -1.51731160316671       -1.64420108488204
H           -2.08950254342374       -2.72805179988394       -0.83447781608303
O           -4.38031680004036        0.11190434692072        1.78729997848776
N           -4.53774065842452        0.23968802117169       -0.51305369304332
H           -7.26869186534184        0.66587389267336       -2.31118966926243
C           -5.73237229997036        1.06168330414594       -0.40678942521463
H           -5.81140607074414        1.51437462027436        0.58902721582939
C           -5.68531598299703        2.14604605516895       -1.48322915560007
C           -6.86860818541790        0.05544885752557       -0.54421633409457
H           -4.74357983978902        2.68426709377466       -1.35774069352369
H           -5.63202911283377        1.67360829341670       -2.46958514123320
C           -6.84808049167118        3.14748834987276       -1.41578856790863
O           -7.59160043362847        0.01421424631121       -1.67521710628885
H           -7.79123288531657        2.60856265427623       -1.26632959284728
C           -6.67025736176363        4.11462511176591       -0.24714667280321
C           -6.93837559817442        3.92852658107294       -2.72659309507812
H           -5.75012004273984        4.68334622500897       -0.36334977532200
H           -7.50232485060988        4.81376648762585       -0.20614805432106
H           -6.62903508794450        3.58235149692132        0.69944677182363
H           -7.12368772684363        3.26608233092415       -3.57018297148067
H           -7.74720186849434        4.65384888149462       -2.68164597036822
H           -6.00927844598606        4.46368751372361       -2.91028538856982
N           -7.00381261184834       -0.73355850736315        0.42592776826996
H           -6.00801679909026       -1.36980871664256        1.77421919191066
C           -7.84330158594936       -1.89662263437391        0.51941833648710
H           -8.77735570873894       -1.61169691636773        1.02425624359688
C           -8.17364016392978       -2.63481117209004       -0.77736690823904
C           -7.10859745868444       -2.85606177632886        1.48296238337851
H           -7.26248639282133       -2.80851398076830       -1.34651028330642
H           -8.61870753541952       -3.59372933781687       -0.52470986639052
H           -8.86454920971233       -2.06130312684348       -1.38758933637788
O           -6.06589780038519       -2.30807840467956        2.09518680146772
O           -7.44407140632559       -3.99461182934796        1.65780814167136
