42
 energy: -62.486127282590 gnorm: 0.000472329822 xtb: 6.7.1 (edcfbbe)
N           -0.85284602357909       -0.37762774528304        0.08407463723285
H           -0.02459582070334       -0.79046156218708       -0.32680781121261
H           -0.82818693220545       -0.57074618512495        1.08166340809349
H           -1.82083432660191        1.26287089149705        0.10697798238285
C           -2.06757146351759       -0.94490296690099       -0.49941884557251
H           -1.92582891907785       -0.96737064648025       -1.58797096351686
C           -2.41487670798351       -2.34799604386916       -0.00713460193910
C           -3.20203777812212        0.03868186703467       -0.22586575820338
H           -2.51977444947192       -2.34745226934650        1.07587427902371
H           -3.35936272015249       -2.66099621601575       -0.43870121378666
H           -1.63624666059068       -3.05437045242354       -0.28815194926628
O           -2.80011219314567        1.28459748389306        0.07333767480101
N           -4.38690065292863       -0.37266932045187       -0.29326016598891
H           -5.70507079088452       -0.59980982092073       -2.22531142505736
C           -5.56113653093021        0.45422226573307       -0.10846145398391
H           -5.71583551910103        0.61806022196102        0.96270570466146
C           -5.51956018928203        1.80914038107735       -0.83890742990337
C           -6.70982117601086       -0.37737992450001       -0.63604804337631
H           -4.76485544240716        2.43603070267716       -0.36369365840579
H           -5.20270367323702        1.64002183100298       -1.87348031216682
C           -6.86280624155187        2.54773083807097       -0.84423737240857
O           -6.59257767911773       -0.80921251740873       -1.90499752064956
H           -7.61613043477378        1.91339094796991       -1.32497769480384
C           -7.33612691144806        2.86937614599138        0.57056648576417
C           -6.72463812076834        3.83403869471784       -1.65750676523845
H           -6.57177193874920        3.42611791546067        1.10884676643445
H           -8.23905858489965        3.47408901443706        0.53342932635002
H           -7.56314636225885        1.96014240421875        1.11998457340735
H           -6.40745561964487        3.61853162391368       -2.67567462772426
H           -7.67527451990255        4.35974578454870       -1.70076719092473
H           -5.98871439415430        4.49231692875412       -1.20040355709247
N           -7.67347823217745       -0.67385425738731        0.11797812182762
H           -8.65603815519585       -0.35655838359059        1.60713096916553
C           -8.77961273496719       -1.48355322356016       -0.34650602731233
H           -9.08839560168477       -1.21422350507612       -1.36407884308613
C           -8.43115223809788       -2.97579752911480       -0.31299406442949
C           -9.95553295659066       -1.24040235383877        0.61035703193522
H           -8.08147627119200       -3.25225512139721        0.67958837778756
H           -9.31627922668412       -3.55720969890388       -0.55525708284876
H           -7.64776689340231       -3.18804639174401       -1.03601682959587
O           -9.61204835773951       -0.57599807048048        1.70774299562140
O          -11.06855181165679       -1.63223757332489        0.39530787439977
