42
 energy: -62.486133523825 gnorm: 0.000478313828 xtb: 6.7.1 (edcfbbe)
N           -0.93076976125510       -1.08094227826943        0.59043282638427
H           -0.68260656828094       -0.38391623265773        1.28486702646253
H           -0.07449531290020       -1.41960977607196        0.16768508132973
H           -2.49782409188896       -1.88519698440374        1.25766280626896
C           -1.82250628322701       -0.51366970406135       -0.42060223242635
H           -1.58330550704287        0.52101421067752       -0.69759539975689
C           -1.80647491238384       -1.38636102420717       -1.67631125153283
C           -3.23171425696656       -0.54468118182883        0.15329733097211
H           -2.05092043702046       -2.41594375655729       -1.42213618834351
H           -2.53787992997056       -1.01434167963447       -2.38737659921839
H           -0.82248694084611       -1.36516989687577       -2.13977588300950
O           -3.39484301959634       -1.51534953715816        1.09805455993580
N           -4.06598980730464        0.28683018107086       -0.25439041883041
H           -5.04564819946615       -1.86983115895129        0.84817989931024
C           -5.46753396332587        0.47442190458566        0.03091964313959
H           -5.53635239435528        0.84878046298758        1.06826791909383
C           -5.96990798955808        1.57331807691902       -0.91812443372384
C           -6.37497837365317       -0.74724400185092        0.01108481820991
H           -5.10968577919855        2.19302825391499       -1.17413795416279
H           -6.32613154203420        1.10058604155241       -1.83309651332715
C           -7.07335123722537        2.45759338582308       -0.32517883327781
O           -5.96053991531806       -1.91358332655517        0.51795994606491
H           -7.79821195886566        1.81558763428462        0.18363283524728
C           -6.50149637341987        3.45004720176492        0.68596816681782
C           -7.78757286111567        3.21815753887655       -1.44103603636848
H           -5.80489781037494        4.12792664683793        0.19686798812499
H           -7.29975185406837        4.04110265317988        1.12900608515716
H           -5.97378678612685        2.94184221138607        1.48953485873562
H           -8.24907424746126        2.53468335883293       -2.14897668477032
H           -8.56563595054124        3.85578768697624       -1.02828206306474
H           -7.08116351341148        3.84648964533344       -1.97967404242455
N           -7.54718673860159       -0.59034495375338       -0.43294478832516
H           -8.70035077012981        0.33757285164473       -1.46132682027624
C           -8.50313220536283       -1.67370314263916       -0.45271943740663
H           -8.04395888733839       -2.62212739066295       -0.76001163011799
C           -9.16720101533359       -1.86811146445271        0.91494647548497
C           -9.58950616293595       -1.29792382533308       -1.47131225350953
H           -9.59278954169936       -0.92720901336563        1.25848022283861
H           -9.95930109290007       -2.60628780293974        0.82721716901420
H           -8.43148654170331       -2.21082472509014        1.63825311793886
O           -9.49956080580190       -0.04443493672258       -1.89868122204595
O          -10.44417992230326       -2.05998802810355       -1.82969293888174
