42
 energy: -62.486133538562 gnorm: 0.000477136837 xtb: 6.7.1 (edcfbbe)
N           -1.77445278426261       -1.22505346663564       -0.38679486068015
H           -1.20749590398317       -2.06133918745983       -0.31861722749666
H           -1.25060867550299       -0.46505937763698        0.03898241745599
H           -2.81407544128203       -0.29806161696166       -1.68239235897710
C           -3.04939524402062       -1.39942539176508        0.31040577359437
H           -3.44799415942124       -2.38071201673828        0.02444597884832
C           -2.96049254395493       -1.32056798557231        1.83160696461869
C           -4.02141008833247       -0.36501751482997       -0.25047488087282
H           -2.54104245766439       -0.36272843493618        2.13362345985931
H           -3.95556072068921       -1.40847143524298        2.25292356682252
H           -2.33234083313549       -2.12050373578406        2.21794569224248
O           -3.68018455993293        0.10642311051160       -1.46563238307197
N           -5.04477968442606       -0.08989337123156        0.41830411000636
H           -8.07065086288726        1.34931977228835       -1.36988905935927
C           -6.11056184724395        0.80235447368858        0.03901694911629
H           -6.40970787240050        1.28115171725204        0.98498188914164
C           -5.80259934890911        1.90391762791212       -0.99263119238785
C           -7.28042195777646       -0.08453100670106       -0.36084433745594
H           -4.73556921637302        2.12078140634430       -0.94797606642659
H           -5.99930408221263        1.52949497985213       -2.00114227568119
C           -6.56299263278472        3.21703697706668       -0.73732117014455
O           -8.26690269250005        0.43769443245023       -1.11866989782940
H           -7.59028816283322        3.00749304364454       -0.40953176336392
C           -5.88444562322276        4.02041767175136        0.37104577393085
C           -6.62592880537866        4.04565530467199       -2.01979605855863
H           -4.88529427207998        4.31914347092141        0.06141152983503
H           -6.45624595755194        4.91789207575564        0.59616169225728
H           -5.79846420223077        3.43317543598005        1.28233500829988
H           -7.15730117456934        3.51516551221843       -2.80804297676952
H           -7.13738407496362        4.98850156172780       -1.83996207815002
H           -5.62113355330039        4.26372277740395       -2.37449111480621
N           -7.28571924417897       -1.26956488571468        0.05507446833377
H           -6.48782620795392       -2.46724400002595        1.08420616651914
C           -8.31874082662681       -2.23307686028176       -0.22554623161616
H           -9.30815587716478       -1.85971895840072        0.06912026678055
C           -8.36642659589964       -2.64719137195661       -1.69969505686757
C           -7.99012085152837       -3.47244705641825        0.62862711487605
H           -7.37468952728495       -2.95024261849595       -2.02990780862464
H           -9.04990637271980       -3.48414612102594       -1.81188375518553
H           -8.70624620256859       -1.81620522624161       -2.31209728168234
O           -6.84581253535471       -3.36884375921190        1.28992750848343
O           -8.69751764316437       -4.44132196346982        0.67212907543878
