42
 energy: -62.486133526090 gnorm: 0.000477935641 xtb: 6.7.1 (edcfbbe)
N           -1.15674276089644       -1.25881486508076        0.80113688383915
H           -0.86890817073791       -0.52344485668817        1.43843118669020
H           -0.32496501789365       -1.75145077300332        0.49819799072933
H           -2.92732664353176       -1.66547525654319        1.48407087968034
C           -1.87665758839498       -0.70093539697766       -0.34110755780447
H           -1.45160609957230        0.23704397014571       -0.72366999612931
C           -1.92155098319324       -1.72537132759527       -1.47716779158104
C           -3.29835038971375       -0.42456854367717        0.12005286813857
H           -2.36185687642114       -2.65827243444512       -1.12898948916037
H           -2.50895379046880       -1.33375786605352       -2.30308689281175
H           -0.91570091526763       -1.93199744355837       -1.83657608893342
O           -3.70471857267918       -1.15823881152882        1.17336739513011
N           -3.98545798071920        0.44481523152320       -0.47961209031522
H           -4.81566042839969       -1.53698963208585       -0.98441829913408
C           -5.36689269623601        0.70498642439203       -0.13599714158558
H           -5.43534409599372        1.00764260861200        0.91732510048710
C           -5.77775597560255        1.87933266011677       -1.04666563834957
C           -6.27502983346615       -0.50280174902082       -0.30433121527677
H           -5.02167574475293        2.65207228341663       -0.89377035334051
H           -5.68681937026280        1.53781934678513       -2.07977915132324
C           -7.16556337439111        2.48721099612579       -0.84134643920002
O           -5.75344697852192       -1.64980936716681       -0.77685165374633
H           -7.91569824743388        1.74373965791814       -1.11902499908262
C           -7.40010412406574        2.91228295222653        0.60546534417787
C           -7.32447409960159        3.69034984098383       -1.77064180510358
H           -6.63897288378545        3.62403889482325        0.91994704913689
H           -8.37352476072432        3.38714779969619        0.70226840506672
H           -7.37196337179453        2.05519254912035        1.27290527152486
H           -7.16110096922156        3.40207285434499       -2.80633083717199
H           -8.32674108527245        4.10247553982787       -1.68486767277183
H           -6.60935065149667        4.46948463798889       -1.51427194025359
N           -7.51617882270850       -0.35494159330409       -0.13256584902455
H           -9.00431622357575        0.63769949354308        0.37487505715193
C           -8.43687884226888       -1.44807893533919       -0.35360161040125
H           -8.25930423634109       -1.93917297143462       -1.31865155146960
C           -8.35583981307922       -2.50154345185605        0.75860280066578
C           -9.85571167640472       -0.86582169526138       -0.33958793299136
H           -8.50858852318636       -2.03065535776339        1.72792100904086
H           -9.12633914057947       -3.25106888795860        0.60102746612230
H           -7.37898317878384       -2.97772773211105        0.74620315923141
O           -9.92583912404227        0.35331409173041        0.18205903981384
O          -10.81529719798604       -1.46980874778723       -0.73200779580584
