42
 energy: -62.486133508393 gnorm: 0.000480720143 xtb: 6.7.1 (edcfbbe)
N           -3.04008988559950       -2.59407986644873        0.99895576566380
H           -3.54439504998425       -2.64077309719584        1.87933523991439
H           -2.14142140181368       -3.04347180660452        1.12712571617131
H           -4.56493449675547       -2.55517480693980       -0.16737630234664
C           -2.87542214717003       -1.20792790548299        0.57030717910361
H           -2.51911150253012       -0.53124919471951        1.35946523306171
C           -1.91195812035507       -1.14750425595698       -0.61580055991526
C           -4.24791406923529       -0.73186300793828        0.11999899796463
H           -2.25946346383728       -1.80080182447111       -1.41323200877503
H           -1.85623150698841       -0.12906316061807       -0.98821593387140
H           -0.91756979525737       -1.46728104413260       -0.31213377980124
O           -5.03098904911636       -1.71335966520154       -0.35823830720661
N           -4.51143496416074        0.49370982369509        0.18504572719620
H           -7.04227027262685        0.49377695110279       -2.17658153436900
C           -5.78675689762445        1.10881810408281       -0.11709392685758
H           -6.02082431652742        1.69014913982736        0.78360462118088
C           -5.57937793596006        2.07853645449189       -1.28860481037877
C           -6.92330967282032        0.11307737372530       -0.30342662740404
H           -4.66199950640214        2.63162704295413       -1.07867767752670
H           -5.38931306200718        1.50711931130356       -2.20453101431737
C           -6.73086565015486        3.07242431403666       -1.50129699444316
O           -7.49157560228385       -0.04277339458962       -1.51128902592741
H           -7.69046271113971        2.54620122475460       -1.43804793412736
C           -6.72062402135367        4.16130341375551       -0.43096924088648
C           -6.61682583846493        3.70655383932354       -2.88749497752269
H           -5.78858926819839        4.72083696207593       -0.46903310237489
H           -7.54363571182687        4.85395432078079       -0.59109429083046
H           -6.82623972641908        3.73539970785162        0.56326591514529
H           -6.67362847158578        2.95482417674453       -3.67271546357625
H           -7.42056130012783        4.42148473226944       -3.04538933851231
H           -5.66871685791518        4.23103288574238       -2.98437044517659
N           -7.24358820428352       -0.53087309017498        0.73038348284641
H           -6.36845959106911       -1.15006139583182        2.11429370600019
C           -8.16320963845765       -1.63149904710940        0.84107017973485
H           -9.11979111631450       -1.24124783739471        1.21541273174260
C           -8.41332685982456       -2.47849397561231       -0.40606177563191
C           -7.59593944558233       -2.53258231877345        1.95993481005898
H           -7.46302693836825       -2.74222301784574       -0.86385852192068
H           -8.93006703755609       -3.38720447296366       -0.10813554424546
H           -9.01518798741955       -1.93801496166776       -1.13015935008079
O           -6.52658341297245       -2.02144676700205        2.56087894533700
O           -8.07049878333338       -3.59388554576359        2.25368533871967
