42
 energy: -62.486133507534 gnorm: 0.000480910505 xtb: 6.7.1 (edcfbbe)
N           -2.79899327504684       -1.96842897554227        1.82262003608554
H           -1.93599094935029       -2.48524350100664        1.94627482040340
H           -3.54478042970501       -2.64839993535593        1.68922836498996
H           -3.82476856927747       -0.49138415546908        2.57803232481478
C           -2.71930509451766       -1.09851950542530        0.65033344643585
H           -1.82062170416343       -0.47717896313960        0.76911533267229
C           -2.65415759207763       -1.82495289617257       -0.69079089847371
C           -3.91170614731855       -0.16267403455374        0.73280401549236
H           -3.45619340436582       -2.55541708876480       -0.75958393335180
H           -2.77007038711969       -1.10609223421523       -1.49447958619404
H           -1.70100743510073       -2.33917474027181       -0.79635134047158
O           -4.33022831860073        0.10019933089307        1.98488488797984
N           -4.44550889014034        0.29829945122649       -0.30934747017874
H           -7.77665844359774        1.92562913993707        0.65350413609788
C           -5.59592720073468        1.16735805181433       -0.19014225899584
H           -5.44593919962532        1.91170660679199        0.60661302738255
C           -5.75894275355431        1.85213531753912       -1.55956997187731
C           -6.80711000926753        0.33499651063689        0.17209353491732
H           -4.80143756775001        2.32268858044400       -1.79021390748460
H           -5.91464058789558        1.05717641061388       -2.29054261827559
C           -6.87439780611499        2.89360228336017       -1.69110924524552
O           -7.92096063371621        0.97358895010558        0.59032776840190
H           -7.83941698445938        2.42909700920864       -1.45931002209660
C           -6.65230647635821        4.09329452992693       -0.76961506576011
C           -6.93633026009038        3.37338056732940       -3.14159683719371
H           -5.70930568417005        4.57862437108196       -1.01227564999461
H           -7.45184545358976        4.82009466171215       -0.89725557447163
H           -6.62132078835165        3.81115227977314        0.28145022096187
H           -7.13183292753794        2.54121477093576       -3.81332026545443
H           -7.72832098088090        4.10827491972087       -3.26652178258217
H           -5.99333660689123        3.83253292276245       -3.42976355280813
N           -6.71235136851434       -0.91636202314433        0.12072254390327
H           -5.56138420723550       -2.21277411637484        0.17737446837932
C           -7.73295047814118       -1.83862191448950        0.54086091248323
H           -8.29912207934932       -1.47275936338318        1.40739163438656
C           -8.70744304246484       -2.16141488819336       -0.59550543055581
C           -6.98796092063947       -3.12479664700484        0.94043323320907
H           -8.15512368622270       -2.47053696364783       -1.48076672682623
H           -9.36740057886518       -2.96680872179616       -0.28574785332826
H           -9.29828089833508       -1.28112965339783       -0.83672927120258
O           -5.70045747580217       -3.10178564775423        0.60420714837947
O           -7.51035397840702       -4.05261641285117        1.49120234393326
