42
 energy: -62.486133520479 gnorm: 0.000479395609 xtb: 6.7.1 (edcfbbe)
N           -1.96301167400694       -2.18197189784075       -1.33288286892270
H           -1.01761662060979       -2.54427984627855       -1.33471043006063
H           -2.19923981619540       -1.93833559155515       -2.29089769193054
H           -3.72979235547400       -2.59642508453812       -0.69975412377367
C           -2.06973465335429       -0.99923405453061       -0.48114342706484
H           -1.58603488397262       -1.24288764635098        0.47416804598784
C           -1.43658389590389        0.26460440830010       -1.05827042453094
C           -3.55133530334528       -0.79398332208782       -0.18614994430546
H           -1.88393372206230        0.49840256254259       -2.02194043049585
H           -1.61722579795759        1.09734482506229       -0.38768185493075
H           -0.36472655709440        0.12840145264728       -1.18765447894056
O           -4.30774219230391       -1.89597289240362       -0.33456375956684
N           -3.94988037820227        0.33936077362908        0.17900212372076
H           -5.19602273743630       -1.03240854822376        2.17817277606185
C           -5.32531876825375        0.67925210358986        0.47499779249584
H           -5.28854786451827        1.22606379481298        1.42898042981611
C           -5.80662019181647        1.63072105005073       -0.62972697181547
C           -6.24492319796693       -0.50855597042529        0.65690903122902
H           -5.00362107020531        2.34622978216778       -0.81549537314416
H           -5.94732096534224        1.03801111881994       -1.53436789036935
C           -7.09931100488304        2.38310384591299       -0.29714164200767
O           -6.02391390780073       -1.27781177305224        1.74771946454461
H           -7.81806892707901        1.67219317793065        0.12009996752334
C           -6.85365351142200        3.49257535468524        0.72310764356466
C           -7.68944313184558        2.97551457165974       -1.57576248205564
H           -6.13769323805988        4.21354040189250        0.33386943249770
H           -7.78161691480757        4.01606192250465        0.94134252852114
H           -6.46594674297455        3.09459776191209        1.65747531797812
H           -7.92836156716706        2.19284100875410       -2.29157252058807
H           -8.60167525377014        3.52433689054014       -1.35443366637830
H           -6.98149908895863        3.66102637644396       -2.03701383920347
N           -7.19296574951916       -0.71148382183122       -0.14371609121744
H           -7.94159909983902       -0.39495698932946       -1.73500746714811
C           -8.09134491560141       -1.83349850079497       -0.00997541754164
H           -7.55352984368659       -2.75721286222866        0.23696578060716
C           -9.16138542881530       -1.57989661101698        1.05745550547506
C           -8.78931895835031       -2.00754097609093       -1.36734382491868
H           -9.67642525706301       -0.64306078316282        0.85270772523389
H           -9.88267850456893       -2.39199084875627        1.04277564482771
H           -8.69848987929427       -1.52383370579156        2.03947692523117
O           -8.56365910034418       -1.00240461233410       -2.20536308059545
O           -9.48437858360909       -2.94846253287097       -1.63372150498361
