42
 energy: -62.486133514623 gnorm: 0.000479074071 xtb: 6.7.1 (edcfbbe)
N           -1.56269197512405       -1.66306028271495        0.56405293314344
H           -1.04383467935491       -0.96725906951288        1.08960702231676
H           -0.89991179704729       -2.34334187883266        0.21151261810720
H           -3.30861952500143       -1.66763345406461        1.42559015522008
C           -2.29447488118667       -1.03769054425750       -0.53767700345805
H           -1.73149241868892       -0.25394360922660       -1.06176575318051
C           -2.72563267281016       -2.10385809551596       -1.54560879125371
C           -3.54744347169020       -0.41727478624347        0.04667157316181
H           -3.27337862432552       -2.89630046204090       -1.03987478404738
H           -3.36926870214266       -1.65302023136477       -2.29460004643747
H           -1.85619737425197       -2.53661080176994       -2.03582106685305
O           -3.98237235823688       -0.99841736228924        1.18754131628859
N           -4.10167582848318        0.54308614928286       -0.54003390141951
H           -6.00073383769723        0.08791612413109        2.10462302267526
C           -5.35435708417987        1.09362882395497       -0.05795217436145
H           -5.16169745523461        1.63125058703241        0.88253453431462
C           -5.87111256994482        2.06490313983017       -1.12330409860437
C           -6.36498991856407       -0.00294619368761        0.19891797915297
H           -5.08136107609479        2.78964157242998       -1.32467479725270
H           -6.03683852754268        1.47780146476434       -2.02583385242386
C           -7.16552208651098        2.78944103349299       -0.74363084245655
O           -6.68651643527956       -0.25295522189560        1.51726873976611
H           -7.92696058546083        2.04100725336211       -0.49851708718943
C           -6.97797000267673        3.71277708459529        0.45914348775584
C           -7.65911665057258        3.59635589226039       -1.94287740647224
H           -6.17121938810489        4.41896116340807        0.27261791462643
H           -7.88995254301756        4.27569732368463        0.64424415962884
H           -6.74620481639542        3.15355819648909        1.36257999389282
H           -7.82501116246231        2.94529791292871       -2.79709237429899
H           -8.59499642458498        4.09737821890109       -1.70722107440414
H           -6.92503844436001        4.35019400873952       -2.22005392225775
N           -6.85147418678572       -0.61504792281427       -0.77691679319148
H           -8.45583226266901       -0.48864069992877        1.23448843306044
C           -7.78234558684126       -1.71154928886338       -0.73908303531080
H           -7.83783547282517       -2.07907761632113       -1.77051403580323
C           -7.36923873491365       -2.86723513080811        0.18343446003786
C           -9.20302131619659       -1.26607000776556       -0.35843282445326
H           -7.36322260548973       -2.56216665149126        1.22746600602703
H           -8.06361592781636       -3.69456682915864        0.05992166525089
H           -6.36914271754229       -3.20040059840722       -0.08534188882868
O           -9.31674633630539       -0.60098507491373        0.79017689419714
O          -10.15712279366105       -1.52087000009915       -1.03663018036395
