42
 energy: -62.486133508434 gnorm: 0.000480331896 xtb: 6.7.1 (edcfbbe)
N           -1.27281964297768       -1.48427575797724        0.86761327491982
H           -0.26648465108859       -1.54541637646306        0.77982372294290
H           -1.64096382008551       -2.43104425980705        0.83958095569532
H           -2.62356634470129       -0.67200535649339        1.96797309918039
C           -1.84971922719961       -0.69086179439163       -0.21505376817898
H           -1.23846371166407        0.21353907228444       -0.32379599494600
C           -1.92508644781190       -1.40852248626190       -1.56291547166850
C           -3.22632627531969       -0.23167199780815        0.24709839884676
H           -2.49019795711070       -2.33486548091067       -1.46676925642683
H           -2.41951876829787       -0.76858010215763       -2.28642938318879
H           -0.92607599148173       -1.64681042565534       -1.92196030972172
O           -3.43520066391265       -0.29743920423117        1.56876022082422
N           -4.05108855438545        0.20951569944573       -0.59965551403046
H           -4.88963600137750       -1.47912405655832       -1.15761083400872
C           -5.37860158688944        0.62657760161225       -0.18995741559714
H           -5.40194741883784        0.93034659396210        0.86382189559289
C           -5.74409665204294        1.81716588828033       -1.09530655499996
C           -6.32544106709166       -0.54705133282747       -0.35988179536607
H           -4.98036829699372        2.58029149384922       -0.92779704173387
H           -5.64879217828836        1.48176505768290       -2.13016770884907
C           -7.12718282704196        2.43757346819446       -0.89175378328413
O           -5.80207408542485       -1.67396836443862       -0.87859137879205
H           -7.88281761415413        1.69225880181433       -1.15048258693171
C           -7.34819865295177        2.88505499293369        0.55057313668032
C           -7.28715793905720        3.62647688792057       -1.83861552315014
H           -6.58174013024608        3.59790322824129        0.84866081648516
H           -8.31863599034597        3.36556376711098        0.64805811780472
H           -7.31788331390110        2.03765377585658        1.22979134404686
H           -7.14275705890588        3.31966151512050       -2.87183348191269
H           -8.28352511262504        4.05085830430806       -1.74439154455450
H           -6.56017541974947        4.40200326436838       -1.60567471571763
N           -7.55204467151492       -0.41125412456497       -0.10377955892835
H           -9.01610016882530        0.60522751723988        0.39101243348051
C           -8.48311167241226       -1.49851597792312       -0.31069327414891
H           -8.33233760484673       -1.98258620123480       -1.28414608432615
C           -8.37340264938717       -2.56078666576378        0.78969131660911
C           -9.89871566266524       -0.90880562018139       -0.25988399807234
H           -8.48370606045897       -2.09552764431344        1.76736410301082
H           -9.15826955875404       -3.29985156848476        0.65561653720210
H           -7.40358002120315       -3.04882439036789        0.73641885714269
O           -9.94514624750901        0.32567627976297        0.22621155353417
O          -10.87323353865277       -1.51934986333220       -0.60198772364808
