42
 energy: -62.486133495837 gnorm: 0.000482156119 xtb: 6.7.1 (edcfbbe)
N           -1.52148184729092       -0.56280664629410       -0.10250285367569
H           -0.86368545548111       -1.30937866774946        0.09387300947467
H           -2.03386527482444       -0.34863807697769        0.74670370688922
H           -4.07279732082695       -0.40224636392045       -2.84267915769854
C           -2.47153611536931       -0.97668221180615       -1.11604491179669
H           -2.03516713597081       -0.73938333959189       -2.09977005755959
C           -2.81855814829477       -2.47750991274887       -1.07575334638890
C           -3.77654074058645       -0.22880952753031       -0.95013057128956
H           -3.22527741344417       -2.72699468155115       -0.09836682628530
H           -3.56270034479948       -2.72626298232669       -1.82905459864414
H           -1.92557742409042       -3.07309868650245       -1.25558331835586
O           -4.47621025773630        0.01975224211915       -2.07387574546293
N           -4.11489578831877        0.11882468584236        0.21105014369444
H           -7.56386261409643        0.56512984073733        1.61160355114387
C           -5.40871395063246        0.65953147638503        0.53693634645960
H           -5.38909579669903        0.80651961052901        1.62633642886233
C           -5.64368295976366        2.01533176407950       -0.16942272696787
C           -6.52606697376673       -0.30172551372300        0.20444555113958
H           -4.72724064611670        2.59621725785598       -0.03986207650324
H           -5.75952406533251        1.80825703937848       -1.23406873252194
C           -6.83301453674753        2.85200400973279        0.31377498450507
O           -7.68527772812722       -0.11856920466640        0.94154696480481
H           -7.75648566857688        2.26843278222662        0.22704357239494
C           -6.66138054659441        3.32086159720095        1.75881411488317
C           -6.98055688235764        4.06806115501839       -0.60108412427456
H           -5.76233865446413        3.92662804086512        1.84865270184694
H           -7.51258412668125        3.92733292628189        2.06107074874677
H           -6.57599061892987        2.49175097880922        2.45935343601957
H           -7.14726485285487        3.75521148315251       -1.62877240579852
H           -7.82350554810367        4.67995067758823       -0.28817199633978
H           -6.08110316042209        4.67887790069341       -0.56855376384431
N           -6.38958432222742       -1.17643897521844       -0.67480779078057
H           -8.82326005576309       -0.35131885441826       -0.47043603525001
C           -7.35716065808403       -2.15095516794453       -1.10256820724474
H           -6.80928631939980       -2.83439656972874       -1.76227806491121
C           -8.00293650213851       -2.96120215086197        0.02938258145061
C           -8.46362307546620       -1.51270310183226       -1.95656736904083
H           -8.61490456044843       -2.33414364912495        0.67383024785743
H           -8.62612482750985       -3.74312386937044       -0.39756623827214
H           -7.22344718001429       -3.42056184995343        0.63342924181228
O           -9.14744967587545       -0.52956926887915       -1.37323556531788
O           -8.71243149203578       -1.88418208657342       -3.06775569167979
