42
 energy: -62.486133513686 gnorm: 0.000479469781 xtb: 6.7.1 (edcfbbe)
N           -0.97919101033512       -0.84115131479223        0.01638410152717
H           -0.12557530434936       -1.01277590807876       -0.50133476509903
H           -1.10069286491865       -1.61411082063967        0.66502626923933
H           -1.88823235267517        0.55975969880890        0.98828671052163
C           -2.13017700027858       -0.77137465070405       -0.88497774301170
H           -1.85275516875599       -0.11125484617841       -1.71623921524181
C           -2.59381789873138       -2.11412069135542       -1.44213803158158
C           -3.25366023851619       -0.07360906627116       -0.13441299740722
H           -2.80082561441040       -2.80403744488900       -0.62682101771239
H           -3.51086510349244       -1.96568752067078       -2.00140637826226
H           -1.83217654576585       -2.54606016245640       -2.08810643924072
O           -2.85292102887333        0.69416154614513        0.90286008386982
N           -4.43982633591674       -0.22900458728375       -0.51133769565399
H           -7.26713614768829        0.25595161696139        1.81240002583160
C           -5.52388591368390        0.45510289272680        0.14107847239213
H           -5.29282768178446        0.65690633394043        1.20079498426531
C           -5.77161117451032        1.78589507380916       -0.60000033238800
C           -6.75815484314725       -0.40678836342560        0.04491280487254
H           -4.84204967374853        2.35856313964528       -0.57166008876945
H           -5.97989150118125        1.52447187296066       -1.63860034415893
C           -6.91290985723434        2.64271982754083       -0.04283349613160
O           -7.62131931547771       -0.32956657453495        1.13192974374197
H           -7.81102504018544        2.02501779007968        0.06588604797819
C           -6.55396024496132        3.25322887471963        1.31156674836829
C           -7.23830044678134        3.75617959707574       -1.03708406598156
H           -5.69726244200380        3.91542300257682        1.20644370056201
H           -7.38901524043745        3.83329749798992        1.69827760912535
H           -6.30016627666025        2.49475684274703        2.04940304876646
H           -7.55359158387312        3.33703455288160       -1.98910882503062
H           -8.04120520321336        4.38298530982933       -0.65618120094208
H           -6.36435678664919        4.38132834949697       -1.20700428415087
N           -6.95702612498841       -1.11091326827221       -0.96359391343414
H           -9.14809516570461       -0.35148086405352        0.17089303488235
C           -8.06341669978496       -1.99279581781467       -1.22084152315234
H           -7.79797052906658       -2.53015568437876       -2.13860711371307
C           -8.33439719711385       -3.01108306036139       -0.10416959174240
C           -9.36761553415268       -1.23690156827856       -1.51949972125949
H           -8.65769795249283       -2.52189121312618        0.81216023575417
H           -9.10671158054120       -3.70521845929968       -0.42599431510062
H           -7.42245126839395       -3.56631266544418        0.10287781038167
O           -9.76546251697262       -0.37337071577883       -0.58500971637912
O          -10.00596083240857       -1.42514476525663       -2.51528359875697
