42
 energy: -62.486133510401 gnorm: 0.000480182226 xtb: 6.7.1 (edcfbbe)
N           -1.71112370429255       -1.50134235482797        1.16280920117534
H           -1.30983855984305       -0.71286489682063        1.66009915170921
H           -0.97554239516789       -2.18230205415327        1.01540701018742
H           -3.56869105673542       -1.43876501856488        1.77386232613278
C           -2.28505914838526       -1.07091706175531       -0.10953017483000
H           -1.66438575863691       -0.34945313823967       -0.65931917323815
C           -2.54226955011402       -2.29003556563386       -0.99655376073526
C           -3.61861080755982       -0.41769248500479        0.20563510172573
H           -3.18690610995010       -2.99867469700454       -0.48103444237788
H           -3.02433917067194       -1.97963838041307       -1.91843457785237
H           -1.60400305448791       -2.78367482327982       -1.24054299530321
O           -4.20623203313512       -0.84283816001453        1.33028626154931
N           -4.09207925863403        0.44153740378274       -0.58466156380796
H           -5.59833249441747       -0.20655736634791       -2.34748810705295
C           -5.40591180023438        1.01027798954918       -0.32202416558547
H           -5.51597226013911        1.26809444317401        0.73679661040756
C           -5.58223411448594        2.24903706816120       -1.20871341751544
C           -6.42589280649421       -0.05420354741643       -0.64340411407414
H           -4.90360597047926        3.02244802533524       -0.84524891095837
H           -5.26540530616986        1.99675983076360       -2.22436526536208
C           -7.01460289274681        2.79226019360481       -1.24238537469187
O           -6.34257134588370       -0.60195909628755       -1.87308029523658
H           -7.68220535797672        2.00400146060342       -1.60874438202183
C           -7.48934807329824        3.21490625751318        0.14529157279590
C           -7.08670536423232        3.97352756513875       -2.20864331090757
H           -6.80220201287839        3.93976030105904        0.57693971065614
H           -8.47387931873319        3.67187047756477        0.08071744599676
H           -7.55850709982842        2.35692908851908        0.80805279387578
H           -6.76332673725541        3.68052532775047       -3.20517832050692
H           -8.10522277374856        4.34758507827064       -2.27656986729987
H           -6.44649013941512        4.78274477054958       -1.86406255887207
N           -7.25916615373983       -0.40998322571076        0.22880989193496
H           -8.05509481231640       -0.17072120469833        1.83618519044047
C           -8.22741362520470       -1.45546957020810       -0.01537435950862
H           -8.72468316466820       -1.33449123384014       -0.98578032626793
C           -7.58378925576169       -2.84546283285838        0.04387067807019
C           -9.27956032414923       -1.36438755871813        1.10006477815280
H           -7.03540363304605       -2.95661268637829        0.97736086174027
H           -8.36005669837374       -3.60367280101954       -0.00852986353542
H           -6.89700667836227       -2.97141722357159       -0.78936005386680
O           -8.92432082205239       -0.55967920495392        2.09366011802964
O          -10.30819960801674       -1.98147489432565        1.08211574728735
