42
 energy: -62.486133516112 gnorm: 0.000479507536 xtb: 6.7.1 (edcfbbe)
N           -1.71181923014189       -1.38482735988496       -0.86395738623962
H           -1.49052899293465       -0.92972754264740       -1.74302962831416
H           -1.55315607467043       -2.37921578649613       -0.97467508715770
H           -1.27700337054443       -0.12779110255735        0.43201261477412
C           -3.09251831780816       -1.11555730946370       -0.45943781934417
H           -3.77841045198475       -1.10779723220099       -1.31469108177244
C           -3.55168324040579       -2.17786129044524        0.54151367161552
C           -3.10379960231897        0.23423999949917        0.28997227903874
H           -2.85591399691242       -2.22232275408073        1.37672956661462
H           -4.53755228246412       -1.92865523203761        0.92466836412649
H           -3.59713387494781       -3.15689151617347        0.06721978432031
O           -1.89510204520130        0.56452746825766        0.75610302215955
N           -4.06526127232258        0.95380515445922        0.65402364711608
H           -5.35392443575263        0.19234740511644       -2.02120091876500
C           -5.42892429870982        1.09982707723465        0.25836263690397
H           -5.95139741203950        1.36120524609315        1.18601510375477
C           -5.50660922697709        2.30604762460568       -0.70029126753910
C           -6.17821761217770       -0.08718125173860       -0.31488693461124
H           -5.05038339825465        3.14970281639091       -0.18128639269425
H           -4.88665325440520        2.11040766948305       -1.58319452041760
C           -6.92752698617933        2.67864860793477       -1.14058021033602
O           -5.90956087686327       -0.46923773356896       -1.58815595436133
H           -7.38168161367295        1.82887505966016       -1.66401057738584
C           -7.81278432761095        3.03227542864993        0.05164113144838
C           -6.85710541072215        3.85731750250276       -2.11107835625256
H           -7.33838957370717        3.79644819876063        0.66277700761186
H           -8.76926270275254        3.41496004747446       -0.29608881603795
H           -8.00524796818702        2.15866990231200        0.66822646615654
H           -6.23988952303084        3.61804207704204       -2.97484442279637
H           -7.85159418034340        4.11663958250107       -2.46527883941817
H           -6.43135921678321        4.72707771777011       -1.61605740965778
N           -7.11095803777295       -0.59816140010347        0.35948269822824
H           -8.25546019900762       -0.53763779072839        1.79294544272437
C           -7.93973824085515       -1.65976184118010       -0.16474376220223
H           -8.23588380739603       -1.46346249027773       -1.20367137136600
C           -7.24351748657894       -3.02364557553777       -0.10475306113505
C           -9.20397377955123       -1.72434706229328        0.70568506482843
H           -6.89622384748330       -3.22145132286952        0.90753861060497
H           -7.94985339209920       -3.79636799065275       -0.39476909777680
H           -6.39473486130171       -3.03762910166958       -0.78381665488113
O           -9.12662918834527       -0.99457285349125        1.81177124391605
O          -10.15882569865606       -2.38910098202057        0.41664610513748
