42
 energy: -62.486133512660 gnorm: 0.000479216523 xtb: 6.7.1 (edcfbbe)
N           -1.76836041230506       -1.09329915244173       -0.27311256473409
H           -1.17633176817354       -1.89661992547319       -0.10139385866260
H           -1.25067040456917       -0.26528102603584        0.00899335488506
H           -2.87692277517527       -0.41051924704346       -1.65340748255323
C           -3.01212738293666       -1.18639007999684        0.49252114358722
H           -3.38837423248011       -2.21120244721398        0.38424513114442
C           -2.87322274821485       -0.86037956175187        1.97664856825911
C           -4.03754313062739       -0.28310738232543       -0.18857281841832
H           -2.47139468149945        0.14306050094089        2.10466008352807
H           -3.85061845258878       -0.90187240393446        2.44390671933969
H           -2.20971757596031       -1.57274171730058        2.46240018865152
O           -3.74774841534905        0.00229924786371       -1.47239598662276
N           -5.05028970831397        0.05874183690283        0.46570203763182
H           -8.35330763629764        1.23677944971595       -1.05319680047859
C           -6.16855797258804        0.83534863531879        0.00102923145258
H           -6.45159439870976        1.44870653856476        0.87170676503113
C           -5.97286912793162        1.76500133973730       -1.21561977944515
C           -7.31423095733821       -0.14087429167344       -0.20416210924042
H           -4.90617274542683        1.93950979757185       -1.34736302132368
H           -6.31989290620884        1.25845506050153       -2.12029925616406
C           -6.66051112983536        3.13212896626980       -1.06694641043160
O           -8.44519711678824        0.31361073435179       -0.78504365305888
H           -7.65860986680651        3.01316644269506       -0.62226930624772
C           -5.85092867064024        4.04161143031368       -0.14440703958617
C           -6.82413309209861        3.78649975848094       -2.43784854880570
H           -4.87881644244796        4.25268908540570       -0.58443959258769
H           -6.36903050909490        4.98520644149277        0.01186684847862
H           -5.69236023180848        3.57417043234460        0.82466758602266
H           -7.44727814980628        3.17865747368187       -3.09115663962735
H           -7.28600597138299        4.76637094475839       -2.34052386720757
H           -5.85334310330905        3.91074817815960       -2.91204898305575
N           -7.16898454630290       -1.32363854202879        0.19122459836598
H           -6.18187534977747       -2.42929334538369        1.15535733979743
C           -8.16937307770682       -2.35342349287323        0.07586840194479
H           -9.13127509528489       -2.03150863537657        0.49610675804526
C           -8.38944213945313       -2.80585724771307       -1.37083385904536
C           -7.65191885589917       -3.54694456296957        0.90083665677607
H           -7.43426598315870       -3.05560890479566       -1.82860429920794
H           -9.02709289475308       -3.68538256047474       -1.37543263620652
H           -8.86137429003765       -2.01195252112109       -1.94378110900915
O           -6.44723410850089       -3.34764200013436        1.41868858290340
O           -8.27719321169881       -4.56124880875606        1.04536420921438
