42
 energy: -62.486133508585 gnorm: 0.000479799686 xtb: 6.7.1 (edcfbbe)
N           -0.70884321348198       -0.06722394776167       -0.18267479216688
H            0.13656839801691       -0.35291915502755       -0.66125802919939
H           -0.62354665328444       -0.35219363087582        0.78905695690210
H           -1.83268617076270        1.48217232337363       -0.03536737777578
C           -1.88855469727735       -0.68915311502255       -0.78152592533310
H           -1.81063066378807       -0.54598751212955       -1.86790785392968
C           -2.04111203004907       -2.17929762417864       -0.48088499280278
C           -3.09492340485290        0.12578961656002       -0.32540301447632
H           -2.22426646537275       -2.33332936625830        0.58012203564436
H           -2.87414245945519       -2.59425256416524       -1.03843983166765
H           -1.13421893557892       -2.71024286005239       -0.76472829567715
O           -2.80726994878949        1.39095468089104        0.00816369359646
N           -4.22296142757339       -0.42577931269519       -0.27410245560763
H           -5.11563564720262       -1.84479831650122       -0.87227033301592
C           -5.48274096800980        0.21907073435288        0.03433945924284
H           -5.54947747355406        0.40186279034155        1.11222826911122
C           -5.64220485531796        1.55358758498490       -0.72237181357959
C           -6.55303469471106       -0.79142527846544       -0.36256396880234
H           -4.83197476680759        2.20742584694013       -0.39774452819244
H           -5.49984009175040        1.34672616027044       -1.78696837230883
C           -6.96553496743426        2.29852270124285       -0.53571549903310
O           -6.09586809221827       -1.93340351899485       -0.88519288650740
H           -7.76977559996176        1.69947343350396       -0.96778252364819
C           -7.27281145999339        2.55640103047343        0.93647915368931
C           -6.89708353442892        3.62345157817233       -1.29493324875432
H           -6.45784727712724        3.10690613877632        1.40287029503069
H           -8.18175886453187        3.14545344359765        1.03084619802985
H           -7.41531268883702        1.62227202529920        1.47297147196293
H           -6.67737947541245        3.45534782099754       -2.34674863522774
H           -7.84717439624638        4.14686790280515       -1.22445323654258
H           -6.12053295268944        4.26289082058897       -0.87965357019766
N           -7.77671631411113       -0.52234486669160       -0.20921016856971
H           -9.15853986083192        0.59684434304110        0.27894862792153
C           -8.79862966958985       -1.47214347825620       -0.59672282734390
H           -8.61948124483339       -1.87396555195859       -1.60185011487340
C           -8.89706215525757       -2.64194136342557        0.39044132036459
C          -10.14285991315383       -0.73343919982861       -0.58628139582448
H           -9.04381001262396       -2.26401221467049        1.40055874784778
H           -9.74019515676958       -3.27117277946256        0.11964224202766
H           -7.98267427711127       -3.22866602897388        0.35956355683980
O          -10.09748502131400        0.44475373580388        0.02501067639227
O          -11.14616215494594       -1.19110890432837       -1.05955200506596
