42
 energy: -62.486133507456 gnorm: 0.000480622268 xtb: 6.7.1 (edcfbbe)
N           -0.76036143955488       -0.10858969957094       -0.47928534002438
H            0.02437590086362       -0.31222786894003       -1.08606267331452
H           -0.56729329925583       -0.53590492233231        0.42251319438445
H           -1.86336008219103        1.39443786755254        0.04048302510810
C           -2.00260188414443       -0.64938064121668       -1.02999190684723
H           -2.03761546650952       -0.37032099828436       -2.09100078102923
C           -2.15596360509647       -2.16360136846885       -0.90597721155845
C           -3.15158415910217        0.08800708805893       -0.35716696014877
H           -2.08013870955938       -2.46545270156029        0.13723104467509
H           -3.13146265767737       -2.45599833480826       -1.27961192087889
H           -1.38288918067876       -2.67307892909193       -1.47713075716221
O           -2.82970574299809        1.28880314506722        0.15353559150386
N           -4.29101389221359       -0.44124012116279       -0.32761217538336
H           -5.42014444705814       -1.87685894914153        1.35883056852525
C           -5.44352091796764        0.22900721374411        0.24902381754251
H           -5.23624206771930        0.50051374338744        1.29550380341304
C           -5.82986311037425        1.48772982555488       -0.53710149128453
C           -6.52853023439856       -0.82586004209475        0.21740708681041
H           -4.95598525551667        2.13880482346812       -0.58596885150356
H           -6.07981610406671        1.17366510725462       -1.55138197120492
C           -7.00216698866189        2.26603845155890        0.07039728695203
O           -6.32117170879876       -1.89799978250108        1.01269330004664
H           -7.79314767010128        1.55794358683427        0.33345929880279
C           -6.57833115820303        3.02032026049263        1.32909610021018
C           -7.55442613532165        3.24755569796500       -0.96196350808868
H           -5.77700773991201        3.71983275096730        1.09996967956391
H           -7.41785866965332        3.58127817278024        1.73338740313458
H           -6.22806173242153        2.33933362781615        2.10076057137313
H           -7.91424866382629        2.72173868191924       -1.84298458376503
H           -8.38183005262434        3.81482047905892       -0.54214956641234
H           -6.78102700148041        3.94817399343457       -1.26995886862886
N           -7.49890328094608       -0.73428848969573       -0.57557111537027
H           -8.31090341248686        0.11466014416181       -1.93410812672077
C           -8.50775525228914       -1.76046711328942       -0.69111581477453
H           -8.06279644221535       -2.75991442982718       -0.77560397319089
C           -9.47543958105935       -1.75013840557742        0.49752416659096
C           -9.30622212143421       -1.45747820889282       -1.96920791716083
H           -9.89704641624508       -0.75484585961370        0.62554101591621
H          -10.28044061063218       -2.45518374627483        0.31060304656417
H           -8.94906485994126       -2.03298457662933        1.40558959168445
O           -9.02767015835061       -0.27075909721190       -2.49399177095527
O          -10.11695524946101       -2.21211622080877       -2.42966724587832
