42
 energy: -62.486133514448 gnorm: 0.000479785551 xtb: 6.7.1 (edcfbbe)
N           -0.89145703063339       -0.84776050341320        0.38371762096870
H           -0.53501318918345        0.03336668270558        0.73846941223096
H           -0.10471800221340       -1.38907357810944        0.04589467908501
H           -2.40561321784459       -1.19671034819067        1.46710938459595
C           -1.86640621354636       -0.62399953356664       -0.68423791390170
H           -1.62916495234643        0.23066837513411       -1.33093541231311
C           -1.99965135833175       -1.87980183390953       -1.54663256709409
C           -3.20357761015571       -0.36011380029878       -0.01683990349926
H           -2.22803395289019       -2.74250295541896       -0.92387447548905
H           -2.80009492164519       -1.74098885536984       -2.26710153995907
H           -1.07246603375471       -2.07029772499298       -2.08281748567936
O           -3.30700464447947       -0.88152160652886        1.23731164879830
N           -4.10109551487185        0.25689514787565       -0.63277339808978
H           -4.94469670189888       -1.67931265903147        0.80367175213873
C           -5.40666948470551        0.54616250274282       -0.07491325246979
H           -5.30496941705461        0.80300176162822        0.99398129767079
C           -5.99336113935395        1.72985742617729       -0.84800673104593
C           -6.29980886455013       -0.67926720739437       -0.12008105141694
H           -5.17995122917087        2.43024664101404       -1.04439249249824
H           -6.34858001478992        1.35716374100142       -1.80822232490164
C           -7.12650712207518        2.45499901731340       -0.11307092262121
O           -5.81640888337658       -1.82125999134247        0.40053324443595
H           -7.79426270874159        1.70540051462082        0.32094847878505
C           -6.58287185545726        3.33757120036377        1.00934581280937
C           -7.92242484290440        3.30814695360199       -1.09907444482740
H           -5.93255628104294        4.10928426102904        0.60212607446791
H           -7.39984753867298        3.82335722468729        1.53783504496170
H           -6.01394256094729        2.75741718858391        1.73187107737322
H           -8.37000184514467        2.69319955732124       -1.87565024359490
H           -8.71946457873858        3.83945670799900       -0.58437736488746
H           -7.27304675753811        4.04163633513718       -1.57249967808861
N           -7.46837458964152       -0.57602952582565       -0.57768966568598
H           -8.64329210033702        0.32441504696484       -1.60630625819791
C           -8.38732484409850       -1.68949012726184       -0.61185532858245
H           -7.89647849078279       -2.62274236595304       -0.91473804948315
C           -9.06155227360604       -1.90224326211625        0.74836463840748
C           -9.47534841364448       -1.34145580830404       -1.63984053393862
H           -9.52004199212438       -0.97427471186191        1.08480620939297
H           -9.82986254480879       -2.66417494858890        0.65249815092640
H           -8.32511147495665       -2.22093019530912        1.48187324510928
O           -9.42646780100720       -0.08075808320810       -2.05133615304735
O          -10.29866826690465       -2.12956253170171       -2.01415553260366
