42
 energy: -62.486133515945 gnorm: 0.000479386036 xtb: 6.7.1 (edcfbbe)
N           -0.92511730372713       -0.89260113243806       -0.01038085545628
H           -0.48641002837919        0.01823947629377        0.07860758479487
H           -0.22793224207816       -1.54038152749981       -0.35850782647808
H           -2.25683802820885       -0.87932552709353        1.36605520089158
C           -2.07127528454613       -0.82807177506269       -0.91744672137983
H           -1.91550436350079       -0.17791836340616       -1.78830772303677
C           -2.43519896603043       -2.23247998298381       -1.40105049718511
C           -3.23868638610750       -0.28403343326605       -0.11872093017445
H           -2.59699215873082       -2.89330247171039       -0.55200349539273
H           -3.34419094797437       -2.18771003939502       -1.99291684509927
H           -1.63471084741451       -2.64017393416716       -2.01462976355862
O           -3.15569028424808       -0.51598589003657        1.21751893656723
N           -4.19189677844126        0.28635495248140       -0.70002362678810
H           -5.07125184254407       -1.00091096444116        1.64823546100583
C           -5.33586311234141        0.78000022661395        0.04788400456997
H           -5.02361700269654        1.15372586604201        1.03528800676837
C           -5.97929420990576        1.89467263265723       -0.77716440299228
C           -6.24947137887177       -0.40780241317871        0.25316711943892
H           -5.22446536359320        2.66619178970874       -0.94033106936912
H           -6.23447428440773        1.46869954921880       -1.74681209499908
C           -7.22391156993312        2.52013682447568       -0.14050469131295
O           -5.92797773275685       -1.24310555117685        1.26241997828114
H           -7.90562268034947        1.71601796499820        0.15149884646045
C           -6.87269742816860        3.34065934849595        1.09909163697946
C           -7.92943050814540        3.40397430302969       -1.16745068207670
H           -6.16048181145401        4.12394846076709        0.84692035805337
H           -7.76566798101670        3.80987345477971        1.50572391060904
H           -6.43943701851234        2.71750255224172        1.87744481845400
H           -8.23014006786913        2.82113180927094       -2.03431548076794
H           -8.81830507446815        3.85699276245808       -0.73469145583850
H           -7.26715577278671        4.20012461026090       -1.50076229246126
N           -7.20116290565233       -0.62094505074028       -0.54144531452426
H           -8.01263004990027       -0.26774310834475       -2.10891570862587
C           -8.05189512268229       -1.78178961580710       -0.43228013782308
H           -7.47818856829904       -2.69490887211766       -0.22809564415017
C           -9.10849152963229       -1.60676571030089        0.66446244202910
C           -8.77451356044034       -1.93399875005443       -1.77980039979123
H           -9.66622794795196       -0.68677612010381        0.49972977537025
H           -9.79534263549841       -2.44804365943446        0.63872839290403
H           -8.62719638956854       -1.56136210754033        1.63829362860542
O           -8.62137101784670       -0.88657776239511       -2.57958565575820
O           -9.42946306721714       -2.89755863366633       -2.06599164755418
