42
 energy: -62.486133512002 gnorm: 0.000479321226 xtb: 6.7.1 (edcfbbe)
N           -1.09740536293597       -1.41094661240084        0.37740354896050
H           -0.11273752615294       -1.40298521116393        0.14242313608172
H           -1.40354983369610       -2.38024295281012        0.37385222868826
H           -2.26633217633412       -0.67219519969332        1.67813530129624
C           -1.87664546117090       -0.64111423887255       -0.59314805231305
H           -1.32740280708099        0.28655727626105       -0.79678718876234
C           -2.15216950003449       -1.36320267274050       -1.90990505867081
C           -3.17293732606683       -0.23556501045425        0.08799090537040
H           -2.66393579342345       -2.30502213890737       -1.72079989236218
H           -2.79299770004093       -0.74539242680885       -2.52971963919956
H           -1.22161111301382       -1.56506674401576       -2.43628908473377
O           -3.16018978918265       -0.34564590226550        1.44291462239410
N           -4.15279836290348        0.15436509092623       -0.59026835715612
H           -5.03023936303185       -1.26588749915042        1.45794043126696
C           -5.36724848160732        0.62897434902198        0.04824478066713
H           -5.15735428973636        1.00617209496225        1.06181641613462
C           -5.95668077058492        1.73495490095247       -0.82750720042553
C           -6.27931353165467       -0.57025511578715        0.17916049579471
H           -5.16821151818082        2.46523990416128       -1.01900053683423
H           -6.23033150599012        1.28354216158267       -1.78055710863540
C           -7.16987911918080        2.43959619424916       -0.21097389142500
O           -5.87207427342048       -1.51935193481467        1.04902957287809
H           -7.84571887175350        1.67940774271947        0.19119303287376
C           -6.75572128049609        3.37716269460196        0.92190643190604
C           -7.91108851576606        3.22646257723889       -1.29028592971881
H           -6.07607321149525        4.14213378513959        0.55155345957962
H           -7.62919248291551        3.87111275213791        1.34137087612773
H           -6.25967350431243        2.83643624134728        1.72407662718436
H           -8.26639376265407        2.56536971973871       -2.07671002779340
H           -8.76880067206601        3.74144412710517       -0.86410147893275
H           -7.25284927857798        3.96945628071700       -1.73567060834634
N           -7.32763974572520       -0.66188823765022       -0.50785668151168
H           -8.33893621030034       -0.05769444475010       -1.86710900398826
C           -8.20725662308895       -1.80483746500011       -0.43886334036166
H           -7.65172744147598       -2.75056206573509       -0.46956069045459
C           -9.07552707878773       -1.78237949474848        0.82400454101142
C           -9.13224854647817       -1.72975960684818       -1.66453819847474
H           -9.60503755327052       -0.83412625744720        0.89443009254313
H           -9.79967703678646       -2.59063793461085        0.77502969208786
H           -8.45178249164854       -1.90767658445255        1.70549071305579
O           -9.04285601657623       -0.58059568020848       -2.32161961492438
O           -9.87594533246484       -2.61738229407983       -1.97776022320095
