42
 energy: -62.486133503059 gnorm: 0.000480285610 xtb: 6.7.1 (edcfbbe)
N           -1.44788419832405       -1.16652881764083        1.09637094058557
H           -0.48228881684188       -1.42579425191020        0.93615003050091
H           -1.90228070940521       -1.94819663021027        1.56033785570040
H           -2.51410819149573        0.26794274529561        1.80597463808218
C           -2.12960790171347       -0.87547606606676       -0.16347880891394
H           -1.47563352592583       -0.20979601923363       -0.74173049928622
C           -2.46714743797458       -2.10604899296953       -1.00296776350764
C           -3.37953850908294       -0.07685699159500        0.18033780815355
H           -3.11467888053049       -2.77575481782787       -0.44066511274202
H           -2.99100274761017       -1.80024284920843       -1.90188628861729
H           -1.55922620507666       -2.63862941031573       -1.27961115616787
O           -3.34599399429250        0.54202311720715        1.36980754009407
N           -4.33001609987868       -0.02380506840147       -0.64219371837789
H           -5.92402126468309       -0.33305051401600       -2.40959337282361
C           -5.53345815239449        0.72736535043686       -0.33766446951951
H           -5.59557984166080        0.98230240537849        0.72578685239336
C           -5.58151160335240        2.00485534078405       -1.18829977215299
C           -6.66626132552169       -0.21131589828730       -0.67675033993678
H           -4.81175592701776        2.68401952330446       -0.81590340342667
H           -5.32132988291203        1.75561630925369       -2.22160471795508
C           -6.94433485002400        2.70613011313107       -1.16408892263095
O           -6.71654819464200       -0.64149433966947       -1.94926717498666
H           -7.70153447608272        2.01635422983900       -1.55424446909057
C           -7.34644394633879        3.10989038279347        0.25199246404070
C           -6.89796239563249        3.93483251649498       -2.07103698934110
H           -6.56585508864501        3.71248761613572        0.71134588547614
H           -8.26218650570569        3.69564797169880        0.22710671424154
H           -7.52315643517297        2.23412243552688        0.87007394823746
H           -6.62553644461111        3.65851294002088       -3.08742829202305
H           -7.86929872891674        4.42234230377124       -2.09894934314786
H           -6.16615338192500        4.64996818103256       -1.70121247804855
N           -7.43611797357804       -0.61567860641190        0.23415624638475
H           -8.15106779970708       -0.41600875248892        1.88812926353816
C           -8.50206604215823       -1.55687277662307       -0.03649015438673
H           -9.04312357342507       -1.30506553116640       -0.95705931588031
C           -7.97634559100206       -2.99188180430219       -0.15038175680427
C           -9.48038056318135       -1.48973009810910        1.14534373578292
H           -7.40036495540529       -3.24687282192299        0.73695794980764
H           -8.81661638159227       -3.67468522771161       -0.23843442671153
H           -7.33947314247488       -3.08447338538666       -1.02641740530107
O           -9.02644326699035       -0.77376876274623        2.16728312633487
O          -10.54185630286538       -2.04841086574807        1.14914017786433
