42
 energy: -62.486133512552 gnorm: 0.000480029423 xtb: 6.7.1 (edcfbbe)
N           -1.16205540895145       -0.68098318165417       -0.09599095684979
H           -0.45495600796081       -1.39017901691366       -0.24861327469940
H           -1.02467973526508       -0.31192296583785        0.84138886446438
H           -1.95498144441652        0.83642574961585       -0.97497853972379
C           -2.50412047610404       -1.25243396164857       -0.20590950502858
H           -2.53446392360955       -1.82317682338559       -1.14366016265622
C           -2.91206191541238       -2.16184979193153        0.94910572596450
C           -3.47528273468591       -0.08736677025134       -0.37418120233854
H           -2.85271623989777       -1.61961445330565        1.89015496885109
H           -3.93798697106642       -2.48294781179403        0.80727531551623
H           -2.26072797060076       -3.03219567542628        0.99750308433978
O           -2.91463244031873        1.01703876463253       -0.91065295306322
N           -4.66877544920114       -0.25350282472663       -0.03417362832568
H           -6.60858372090890        0.46067251980059       -2.41840766985327
C           -5.75943142161687        0.68767006151013       -0.12020567915545
H           -5.99852080566737        0.93214403027157        0.92214541247108
C           -5.54761903756827        1.98300448171927       -0.91337520197271
C           -6.91442339456161       -0.15884313802133       -0.63081264584555
H           -4.72379218634458        2.53132991864443       -0.45509809161805
H           -5.22754840752198        1.74927643722975       -1.93463653464139
C           -6.78998036397463        2.88522932721289       -0.94530537194232
O           -7.17784147603451       -0.16535041578486       -1.95247307846331
H           -7.66494930804719        2.29804573484819       -1.24756133241706
C           -7.07720020291914        3.48514280030707        0.42929118436241
C           -6.58311428492834        4.00219501579850       -1.96784964563804
H           -6.21672306119501        4.04774472129717        0.78536796902340
H           -7.92761885870962        4.16055335933271        0.37230127888621
H           -7.31212832247796        2.71131821740838        1.15533503577368
H           -6.42122641295457        3.59706347821602       -2.96489615030500
H           -7.45436178859620        4.65167719071659       -2.00318084861794
H           -5.71755538800119        4.60359448919759       -1.69868459003660
N           -7.51761029259335       -0.89802048699126        0.18917447788466
H           -7.89291789932227       -1.36615867061579        1.89288717725958
C           -8.56143109118215       -1.81055755828106       -0.21793584810706
H           -9.26637643773284       -1.34417348494745       -0.91742789091338
C           -7.98443311901282       -3.07504031220059       -0.86464615787184
C           -9.31656492952311       -2.22464600565549        1.05420719561119
H           -7.25358245128931       -3.52929395581221       -0.19878301744026
H           -8.78783541681676       -3.78219336278788       -1.05099259544860
H           -7.49839575202271       -2.82180158806336       -1.80322097514121
O           -8.69405898542386       -1.87122187207688        2.17167272069376
O          -10.35292571573582       -2.82867798835982        1.03477827009097
