42
 energy: -62.486133527816 gnorm: 0.000477553605 xtb: 6.7.1 (edcfbbe)
N           -0.97542568012081       -0.44442362548353       -0.68888321900702
H           -0.26704548229971       -0.85259029456719       -1.28700269167560
H           -0.77383345505738       -0.73493740717959        0.26440838431900
H           -1.87907568241450        1.24957695455962       -0.42419871555202
C           -2.30975311084183       -0.90828309870795       -1.07255166360966
H           -2.39863846113105       -0.77041636624191       -2.15836608710791
C           -2.61667304898003       -2.36187185728963       -0.72697590821498
C           -3.32028099675113        0.04263802242320       -0.44447972145712
H           -2.47178150030560       -2.53228904039756        0.33783794048386
H           -3.65428220965041       -2.56600490477984       -0.96739636757784
H           -1.96900118999632       -3.03385866866727       -1.28628621983014
O           -2.83446819184067        1.28368559937395       -0.21597040812897
N           -4.47128673200780       -0.37993939018173       -0.19454277523540
H           -7.62221749246660        0.51523253847321        1.60793340720701
C           -5.57123752420792        0.39499221561100        0.31021004815565
H           -5.43007408853737        0.56673728777146        1.38808482385933
C           -5.73006292899711        1.74766713341853       -0.42477416608895
C           -6.82058684358356       -0.42932388415339        0.09522039296635
H           -4.79170085132060        2.29271070372659       -0.32117718847552
H           -5.86789212329759        1.51018453687145       -1.48219744945178
C           -6.87177505416964        2.65676354751063        0.04241204401191
O           -7.87421261065287       -0.15153344485875        0.95782263111618
H           -7.82322812750046        2.11596744086745       -0.00154919319327
C           -6.64256861954133        3.17339629960025        1.46311205431563
C           -6.98141745285029        3.84196404669757       -0.91695414350907
H           -5.71853212211520        3.74620784845027        1.50448076189932
H           -7.46105020279421        3.82300972050827        1.76564389278986
H           -6.56712381184927        2.36842275001891        2.19289636763569
H           -7.18989355750641        3.49747486820418       -1.92678407096664
H           -7.78526454098573        4.50723348357840       -0.60985956064180
H           -6.05217641870376        4.40746615558509       -0.93051346881903
N           -6.85524071062640       -1.30178783155664       -0.79410856886339
H           -9.18232062599584       -0.30002804765334       -0.27245824385411
C           -7.94348339754456       -2.18536032004266       -1.11770569757130
H           -7.53785537223205       -2.88504802389830       -1.85770162162124
C           -8.48814079101673       -2.98140404818500        0.07711621073870
C           -9.11569059801329       -1.46240077075930       -1.79913811235969
H           -8.95063641356416       -2.32866493702150        0.81424258623066
H           -9.22611722440934       -3.69947933971266       -0.27177177579483
H           -7.66984619401808       -3.51643417837133        0.55341624528401
O           -9.64088145718221       -0.44104480668110       -1.12258576762696
O           -9.55341834855535       -1.80623292797196       -2.85996990052301
