42
 energy: -62.486133511238 gnorm: 0.000479782593 xtb: 6.7.1 (edcfbbe)
N           -1.16765519355545       -0.66687623797270       -1.44164952472589
H           -0.38681706204860       -1.29754398094763       -1.57481894661433
H           -0.79044767084035        0.22532198938931       -1.13325809037804
H           -2.71223241419143       -0.09398197053759       -2.36445621445980
C           -2.09749253305896       -1.18470156085562       -0.43773108245949
H           -2.25627942501080       -2.24874137178409       -0.65467373224543
C           -1.63058926034141       -1.02985421410602        1.00697315720134
C           -3.43275798384864       -0.48870759562180       -0.66416178886181
H           -1.43620211599964        0.01797776487497        1.22743813734659
H           -2.41017741884375       -1.38046697215772        1.67443395513553
H           -0.72152264810082       -1.60284292678316        1.17742287497718
O           -3.58023800808802        0.01467630236414       -1.92079058680507
N           -4.29237768674614       -0.48689134826626        0.24559708648939
H           -5.33889280407875       -0.81669172289067       -2.00646105971465
C           -5.57786179831766        0.17196787297424        0.20394341067833
H           -5.91266466431801        0.19949797070761        1.24512661554068
C           -5.52852859156614        1.60770046350840       -0.35541419560056
C           -6.59305214838965       -0.63624678808743       -0.57271643083957
H           -4.70452245888566        2.12748967240681        0.13998497921676
H           -5.30236589783366        1.56836609748237       -1.42332600867314
C           -6.82651725015759        2.39559450909662       -0.14989265538907
O           -6.21937833511893       -1.14181478731136       -1.76016003122637
H           -7.66487137859512        1.78821692923684       -0.50517542623226
C           -7.06139915764632        2.73409275599660        1.31983877258625
C           -6.77580249962392        3.67999594186788       -0.97662499881649
H           -6.24027014667172        3.33446938336770        1.70680229127489
H           -7.98215617997505        3.30164983912413        1.42843519107233
H           -7.14838769832949        1.83534607992283        1.92368185151928
H           -6.65518703455247        3.45657527200563       -2.03435081525132
H           -7.69514933524315        4.24631667078353       -0.85113387289030
H           -5.94246306203742        4.30397204930018       -0.65932574667185
N           -7.76475785420978       -0.72700068802714       -0.11600877719801
H           -9.06432080365488       -0.05704353714620        0.96336983661693
C           -8.81263776885449       -1.40327706868009       -0.84637125553913
H           -8.75588048998488       -1.20474974235504       -1.92485669756725
C           -8.76670216412135       -2.91814267166478       -0.62102282916430
C          -10.15155604152433       -0.87063929036678       -0.31534653454186
H           -8.77567537252064       -3.13484775933220        0.44519079098370
H           -9.63461146148412       -3.37651862694923       -1.08667952962844
H           -7.86017507536149       -3.32900181159510       -1.05843208023031
O          -10.02963583306598       -0.12037070386019        0.77349820071221
O          -11.20597853586197       -1.12429989307392       -0.82796317390496
