42
 energy: -62.486133513651 gnorm: 0.000479655597 xtb: 6.7.1 (edcfbbe)
N           -1.87806619494712       -2.30019967298387       -0.21600365196293
H           -1.05055122890798       -2.31570509817193        0.36460474875623
H           -1.69656187549625       -2.84670906084092       -1.04843733983257
H           -3.54797672763093       -2.48672971655306        0.51437588996542
C           -2.29046305024756       -0.93576733448502       -0.55889109168526
H           -1.60469621118901       -0.19292973972532       -0.13891488725273
C           -2.38714982087311       -0.72596522155526       -2.06823644972681
C           -3.67544541826189       -0.69415807382009        0.05284943707142
H           -3.08937008120854       -1.43747854883045       -2.49794713362652
H           -2.74915658870705        0.27782080843416       -2.26501200133749
H           -1.41303001840363       -0.85486536297378       -2.53742020167547
O           -4.21180970024917       -1.76742236937012        0.63959644791532
N           -4.12143239454318        0.47946639853632        0.01001654962152
H           -7.43371824053334        0.93371693124648        1.74262499042583
C           -5.44703346847192        0.91804524525976        0.35247152627508
H           -5.38774564056779        1.37380939728483        1.35329365158042
C           -5.79861814711936        2.00856576039663       -0.68522669169895
C           -6.53811845427569       -0.12518295364590        0.36377879908873
H           -4.93821578639005        2.67636693946635       -0.74413169414562
H           -5.89531337326280        1.50411279631768       -1.64799144982858
C           -7.06468734275270        2.82508900523699       -0.40773593936418
O           -7.58914367797307        0.12714334809709        1.23705760728572
H           -7.91129377436891        2.14762676225054       -0.25040163069870
C           -6.90589716915835        3.72724487151462        0.81605362650809
C           -7.38675356787229        3.68085831572052       -1.63237388876474
H           -6.09225034680567        4.43136762466079        0.65617531971995
H           -7.81870049594373        4.29344524277536        0.98852825418928
H           -6.68592240637638        3.16320220297738        1.72074450344377
H           -7.55376930082062        3.05289096295050       -2.50377215312927
H           -8.28356417446351        4.27126977273668       -1.45938119562932
H           -6.56413193857176        4.35899179377364       -1.84837301314851
N           -6.46256874381612       -1.13093553270285       -0.36970262385526
H           -8.90508156702566       -0.46737945102269        0.16387886121552
C           -7.38738213721865       -2.22892669412984       -0.45825689572040
H           -6.89602419773997       -2.96861677772854       -1.10123922513276
C           -7.71268028470401       -2.87883397351176        0.89325015646417
C           -8.69862483082283       -1.84440285297353       -1.15737389612852
H           -8.26479121831345       -2.19996911920451        1.53930052905555
H           -8.30537710079772       -3.77591776042637        0.73293579571312
H           -6.78181196465660       -3.14607430433073        1.38763724963282
O           -9.37050427411986       -0.82870649561858       -0.61505469810070
O           -9.11075837853746       -2.43018401483937       -2.11836143932586
