42
 energy: -62.486133488576 gnorm: 0.000482818480 xtb: 6.7.1 (edcfbbe)
N           -1.04557680222661       -0.90728368511816        0.40259003996604
H           -0.14502802724578       -1.10911556677592       -0.01448955616069
H           -1.27087816367711       -1.67745227314809        1.02664752815083
H           -1.97762146362948        0.54404438916845        1.26184211550693
C           -2.08077312004843       -0.78192674916339       -0.62360503819519
H           -1.67650644096736       -0.14311452679587       -1.41896901012242
C           -2.54761211130974       -2.10299753309463       -1.22964825308278
C           -3.24264703815526       -0.01690355854732       -0.00684790138796
H           -2.90636552753936       -2.76855643897150       -0.44676060026141
H           -3.36575495211942       -1.90968115573909       -1.91480571824700
H           -1.73253031788162       -2.58929496603267       -1.76167807538007
O           -2.92357613983265        0.71577304901391        1.08223495441529
N           -4.38272623534120       -0.09817942825708       -0.52578266138284
H           -5.92070956004919       -0.66231214155415        1.92338511230922
C           -5.50248383520703        0.67078628826989       -0.02283168545562
H           -5.27339965558053        1.13467190362532        0.94977287594699
C           -5.84427966893305        1.75136934413821       -1.05421140433632
C           -6.62815166403997       -0.32192581101632        0.14238133535274
H           -4.96558765366332        2.38862613672252       -1.17580239549465
H           -6.03532498564170        1.23809553917008       -1.99572844612967
C           -7.05822048335832        2.61167721282443       -0.69203115151639
O           -6.66475400243499       -0.94713935746633        1.37839354936685
H           -7.91665243850631        1.95080753671209       -0.54006469185151
C           -6.82875031272110        3.42875274724637        0.57788985695394
C           -7.37317908181248        3.54464334079629       -1.85986036291414
H           -5.92967556728753        4.03482169639111        0.48388518656522
H           -7.67234306926948        4.09253843055088        0.75220482283970
H           -6.72501442341445        2.78953033759309        1.45109504565624
H           -7.56179528727742        2.97149929200896       -2.76365248051768
H           -8.25547080661561        4.14169983711073       -1.64253811355679
H           -6.53896753829280        4.21859731797542       -2.04484317084010
N           -7.40516469520618       -0.56908409113172       -0.80109598295823
H           -8.47574939948013       -0.97643335457237        1.51573923973424
C           -8.46831127715042       -1.53845968607264       -0.83261618891641
H           -8.81244400263990       -1.55577205834414       -1.87323869358143
C           -8.04577088511481       -2.95507047396870       -0.41969627415487
C           -9.67568071216220       -1.11780934864605        0.01957284747363
H           -7.75628838239965       -2.99532067853065        0.62816059633071
H           -8.87194217616166       -3.64214135025476       -0.58519371804198
H           -7.19760170110126       -3.26588416875920       -1.02543237688855
O           -9.42063066619373       -0.86162767466106        1.30271981168488
O          -10.78425099110790       -1.04647412039433       -0.42815587689057
