42
 energy: -62.486133508100 gnorm: 0.000481339459 xtb: 6.7.1 (edcfbbe)
N           -1.27146061337570        0.15521818269415        0.31934726127707
H           -0.40270890231947       -0.23001959231696        0.67468013217416
H           -1.89756754984071        0.30658262298761        1.10330544212007
H           -2.91698592160968       -0.23978662844949       -2.78006513881774
C           -1.89249900017305       -0.77446364110744       -0.60560632764786
H           -1.31048343889033       -0.74367233831004       -1.53946396080640
C           -1.94856920434689       -2.22743475869177       -0.10144232453492
C           -3.30775972314718       -0.30824601504294       -0.86984119664671
H           -2.53061180619344       -2.26728157022016        0.81605600312655
H           -2.41533910487303       -2.87666624043957       -0.83891052269858
H           -0.94254559003205       -2.59250724795871        0.09494921083685
O           -3.67664722310789       -0.17049703913423       -2.18891628377609
N           -4.05727480285233       -0.11750656826306        0.11039773682429
H           -5.24689239234430       -1.03926802592393       -1.91750789274586
C           -5.42085515970343        0.34913248919922        0.13162787532291
H           -5.67140390389523        0.45146770079828        1.19109067090379
C           -5.53604367809920        1.72833515186555       -0.55864853118537
C           -6.43119762173243       -0.59901705113895       -0.47991035701730
H           -4.73075381036846        2.35379166585875       -0.16543947502878
H           -5.36001624561245        1.59405965680140       -1.62895849219593
C           -6.87610879829597        2.44075453530758       -0.35708680010998
O           -6.09164582150674       -1.33907898632481       -1.54554450799729
H           -7.68230024047201        1.76992668043834       -0.66832770039915
C           -7.10182533001654        2.82984151436156        1.10142064915519
C           -6.92004263317525        3.68779871347671       -1.23962087103329
H           -6.30404408433134        3.48425362636238        1.44704066013780
H           -8.04701604874239        3.35690411485254        1.20336299308580
H           -7.13507064521173        1.95416950703246        1.74330542055371
H           -6.79727069361975        3.42659749387964       -2.28836183263980
H           -7.87393829555836        4.19621723351918       -1.12502919297475
H           -6.12684202963663        4.37911003054711       -0.96196172121079
N           -7.59625234358776       -0.59093554770021        0.00661379049735
H           -8.88636377169399        0.26616806344992        0.97417710007676
C           -8.65430282168422       -1.39753412233126       -0.55731211891961
H           -8.61930136723800       -1.41374697283154       -1.65475176172394
C           -8.59452100226683       -2.83964205541963       -0.04183660569981
C           -9.98704555318737       -0.77808272131291       -0.11306799282150
H           -8.58492853417929       -2.84445438548014        1.04622655713889
H           -9.46646767131107       -3.38347955352448       -0.39408929702648
H           -7.69244917539778       -3.32477815957047       -0.40642763159352
O           -9.85320655153957        0.16077288526722        0.81646211813210
O          -11.04763215361656       -1.12502824903086       -0.55299999433576
