42
 energy: -62.486133511433 gnorm: 0.000479680907 xtb: 6.7.1 (edcfbbe)
N           -1.34030000529325       -0.61912770490389        0.57773197759354
H           -0.53974464837264       -1.19659839796149        0.35038936588267
H           -1.47670451413163       -0.67061603046218        1.58397717459400
H           -2.05625836600785        1.12029253402033        0.21747537837407
C           -2.54158770036716       -1.10064467903705       -0.10472618596481
H           -2.27442994170866       -1.25524295276895       -1.15859472529362
C           -3.12794070350680       -2.39085125860009        0.46134127478013
C           -3.55900124509293        0.03445336008621       -0.07698915556377
H           -3.35487169332347       -2.26679795502617        1.51794974897368
H           -4.05158349184498       -2.62162465796425       -0.05765930573181
H           -2.42630820960551       -3.21385961969095        0.34162224565770
O           -3.01388427867389        1.25963649395229        0.06602838769459
N           -4.77610863311903       -0.24500835110597       -0.18192634312234
H           -7.25190802892093        0.75436450042674       -2.28142782339080
C           -5.86185326256912        0.71195726526364       -0.20793055693782
H           -6.02205955673081        1.06071479314645        0.82057565594546
C           -5.63433177003241        1.92527668148107       -1.11952560516579
C           -7.07575849489799       -0.12648053834067       -0.58547621789661
H           -4.68209532927170        2.37682254520457       -0.84174966712784
H           -5.52314291174885        1.58483676864460       -2.15604221335580
C           -6.73117406675201        2.99618851897728       -1.00906587932728
O           -7.67439198510403        0.04607744461297       -1.77901808876676
H           -7.71772455102640        2.51963147674961       -0.96368174934696
C           -6.55233037651032        3.82411157842404        0.26178441525487
C           -6.68902416545818        3.91034177914523       -2.23360629427286
H           -5.58843586778227        4.32858079702661        0.25155462576885
H           -7.33368737158025        4.57680531799450        0.33576935393873
H           -6.60253389731348        3.19698998371611        1.14826737800493
H           -6.87475239423396        3.35403890960070       -3.15096352062070
H           -7.44371178931414        4.68891889639604       -2.15265161866262
H           -5.71396302308593        4.38622747561333       -2.31380651294780
N           -7.44012131496441       -1.00554436758359        0.23781226854641
H           -7.21306553964422       -1.81038720531594        1.81470251513132
C           -8.52274959135965       -1.92691779332951       -0.01307043794436
H           -9.43958400665791       -1.40465229597489       -0.31412108705007
C           -8.17050902394291       -2.96613487105453       -1.08363242819851
C           -8.78169217546551       -2.67045352262638        1.30799576589072
H           -7.23644942547821       -3.46017166721267       -0.82386542015052
H           -8.96372046695270       -3.70659498667162       -1.13827348622605
H           -8.05868683674499       -2.48223883296876       -2.05003441431452
O           -7.84017811583598       -2.46063960386468        2.21858798826761
O           -9.72783249170350       -3.38770566641572        1.48320837841297
