42
 energy: -62.486133510970 gnorm: 0.000479432828 xtb: 6.7.1 (edcfbbe)
N           -0.76108285015766       -0.10045412322918       -0.96535198661137
H           -0.03498800059109       -0.59429091784562       -1.46907977232172
H           -0.40338394463245        0.11028612185150       -0.03768547960882
H           -1.92746876263000        1.35922318524403       -1.18816457127109
C           -1.97522656685236       -0.90692560569869       -0.85963262740429
H           -2.15573686973051       -1.35763537883936       -1.84396838006450
C           -1.90116844426941       -2.00953689812563        0.19590742558796
C           -3.13704646001347        0.05694141870120       -0.60213808519590
H           -1.75307806525049       -1.57325539218452        1.18170123540961
H           -2.82224149370116       -2.58211081087230        0.21128130484883
H           -1.07282158885493       -2.68131579906631       -0.02119140269569
O           -2.86364722339942        1.33266795498496       -0.89446224473577
N           -4.20526103354472       -0.42032237941168       -0.14537029165098
H           -5.06978149495161       -1.93725708771007       -0.53702887702626
C           -5.47502068138434        0.22988648648862        0.09729619628865
H           -5.56061557662033        0.35051325217590        1.18542069514599
C           -5.63545668705264        1.60086501655311       -0.57938730394297
C           -6.52521267532588       -0.79907579373851       -0.31917393219557
H           -4.84302997081284        2.24237475011077       -0.19032836790427
H           -5.45851486785358        1.47058522406266       -1.64974353486919
C           -6.97250971664417        2.32217357333246       -0.38868863591976
O           -6.04540072611410       -2.00941626246363       -0.63371369329563
H           -7.73913200153874        1.78713323950275       -0.95189015911520
C           -7.38776867765019        2.39295624692422        1.07801676417787
C           -6.85837965199669        3.73264135328720       -0.96687302187266
H           -6.61081554328840        2.87295085558760        1.67036559721466
H           -8.30096745197186        2.97454295765520        1.17969723673701
H           -7.56981146500876        1.39909587635646        1.47779673941660
H           -6.55032955398772        3.69822731200826       -2.00915983949161
H           -7.81735756382980        4.24162803341187       -0.91053231076430
H           -6.12626531267164        4.31638349687362       -0.41221258671627
N           -7.75203445393711       -0.50667941106979       -0.34629939130304
H           -9.20658261217087        0.63492725229301       -0.08715027348746
C           -8.73429451610713       -1.49834459107670       -0.73371913340598
H           -8.43981376958510       -2.02539730000805       -1.64943430495135
C           -8.97228777629762       -2.53186962931902        0.37517659495449
C          -10.06055324062596       -0.76940579577228       -0.97683305654022
H           -9.24056369543517       -2.02786093540497        1.30197531361522
H           -9.78279328846976       -3.19339613572948        0.08234760457588
H           -8.06972889651564       -3.11546769558639        0.53605215262810
O          -10.09993787984226        0.45102203046805       -0.45388112910670
O          -10.98808020987239       -1.26903354188871       -1.55100543560509
