42
 energy: -62.486133510524 gnorm: 0.000479820822 xtb: 6.7.1 (edcfbbe)
N           -1.62537432571051       -1.08686633549992       -0.35215236657419
H           -1.01793828314610       -1.89640851311760       -0.31477257888390
H           -1.18871862854396       -0.35262890823629        0.19856767891407
H           -2.62491451809387       -0.08266582832428       -1.64451498071308
C           -2.94308704921252       -1.39926591192259        0.20219608028555
H           -3.26908407125326       -2.34429338532200       -0.25008446425669
C           -2.98352965838463       -1.53109120371769        1.72101486388788
C           -3.90914119088116       -0.33068949016255       -0.29976888983375
H           -2.63867852842187       -0.61044535769606        2.18570513410722
H           -4.00350474768710       -1.71370221509653        2.03857648457376
H           -2.34960160159956       -2.35286128206835        2.04793438456691
O           -3.52062629854727        0.26122471274804       -1.44793335662029
N           -4.96288498576090       -0.12744410901130        0.34629274480712
H           -7.59015047539032        1.14877615894534       -1.90729194768401
C           -6.02447938030053        0.78678192165466       -0.00078679837426
H           -6.35564880213424        1.18935946506999        0.96787873595436
C           -5.67918569535645        1.96211056377127       -0.92705125602961
C           -7.16617890188239       -0.09092859029754       -0.50007685622149
H           -4.67434429866020        2.30205720448262       -0.67178212053100
H           -5.62907994922697        1.61996518362431       -1.96505060747382
C           -6.64502714150739        3.15187888619439       -0.77970822577480
O           -7.90168999676916        0.30367179424049       -1.55794296198600
H           -7.66766662998710        2.78842129090709       -0.61646267960465
C           -6.26372273510240        4.00636813247402        0.42790639354947
C           -6.62997282875597        4.00678388679599       -2.04680546739901
H           -5.28014757482867        4.44813712119421        0.28260524980807
H           -6.98307792828920        4.80989973651499        0.56706173219546
H           -6.24048987582334        3.40967199793606        1.33676780306532
H           -6.96214489746905        3.43957872821224       -2.91486422378751
H           -7.28690500009696        4.86604144188626       -1.93313313604594
H           -5.62348700653556        4.36986303040758       -2.24283723933025
N           -7.36772388461028       -1.17070964430720        0.11062898564430
H           -6.87928174503525       -2.24066496608247        1.43633570827339
C           -8.38867047590307       -2.12534625155984       -0.23969669005865
H           -9.38285936996220       -1.66108450224641       -0.26411544102924
C           -8.13007934606849       -2.81062829481733       -1.58583854788078
C           -8.37072170817892       -3.19821613851730        0.86519472411556
H           -7.12521943940533       -3.22850100893053       -1.59947344679821
H           -8.85079650218650       -3.61195822116108       -1.72164355788303
H           -8.22758670342017       -2.09355246299739       -2.39656277385729
O           -7.36233854893405       -3.06063625045061        1.71394757023897
O           -9.18043056807588       -4.08202828798480        0.93067174055316
