42
 energy: -62.486133510575 gnorm: 0.000480135742 xtb: 6.7.1 (edcfbbe)
N           -2.29835720803006       -1.31866119784960        1.66115766844797
H           -1.73718930256842       -0.50233464090868        1.87873700066347
H           -1.69957498904482       -2.13475581196741        1.70404472406011
H           -4.07798337881558       -0.90173045569002        2.28231428363235
C           -2.91388845898241       -1.19282100769329        0.34196911271582
H           -2.26114351861296       -0.74017480109649       -0.41627665211668
C           -3.37701500986069       -2.56727112970861       -0.14433745889117
C           -4.14976324598328       -0.32825760368659        0.50183168071942
H           -4.02114595156592       -3.03060291519790        0.59931526088471
H           -3.93071552421004       -2.45479609074055       -1.07100643554165
H           -2.52048738818488       -3.21485201707142       -0.32060427285643
O           -4.70255217171136       -0.38489225122267        1.72816312872299
N           -4.55501702229468        0.36239827716851       -0.46610452303078
H           -7.99773171097105        1.29613150422201       -1.53299858475929
C           -5.81303483638726        1.07205867080615       -0.41047281390343
H           -5.90806100798920        1.59463338424051        0.55665141185240
C           -5.83285956132826        2.09274633561029       -1.55766876098077
C           -6.96809719316293        0.08253974563443       -0.45142195467583
H           -4.79426534645120        2.36266153973449       -1.75444934500928
H           -6.19995817137115        1.61099704736033       -2.46862371058064
C           -6.63164276861232        3.37107333258014       -1.25444406361023
O           -8.08770198229673        0.42687894731168       -1.12250601141854
H           -7.55284380926479        3.11933600034450       -0.71198624013131
C           -5.81871075723417        4.31466004131149       -0.37000905680649
C           -7.01470127141964        4.07563174880018       -2.55537727264737
H           -4.92443164231966        4.64428215642802       -0.89410128923401
H           -6.40619209029574        5.19144033587912       -0.10709080947874
H           -5.51314156394537        3.82108783463291        0.54935163651159
H           -7.64114922195611        3.44132561746855       -3.18030828489826
H           -7.56224790740058        4.99147050646103       -2.34551675874303
H           -6.12109957627674        4.33315082253222       -3.11931245319074
N           -6.85638238003969       -1.00996547486102        0.15939360730196
H           -6.10186323190674       -1.83632322711461        1.60712615254715
C           -7.89234918638179       -2.01230843939981        0.17734640405149
H           -8.87784774005094       -1.57523389846167        0.38978004151207
C           -7.96985235818840       -2.78092891355874       -1.14495739999697
C           -7.54931292756983       -2.99578153001740        1.30783105349827
H           -6.98330752773739       -3.15420897244477       -1.41224199896615
H           -8.64906758854715       -3.62065547949376       -1.02823015547854
H           -8.32938567608782       -2.12881590285786       -1.93649982750239
O           -6.44911442138664       -2.68610785704637        1.97947967857033
O           -8.21500466113406       -3.96505014630308        1.55098863570623
