42
 energy: -62.486133499083 gnorm: 0.000482161595 xtb: 6.7.1 (edcfbbe)
N           -2.87934258481267       -1.68798409380930        1.93327615596552
H           -1.95123402075754       -2.05676504613979        2.10057872369541
H           -3.52332311232682       -2.47615742927628        1.91543522753925
H           -4.16323379857377       -0.42503618104775        2.53047140393588
C           -2.93653618831542       -0.97421435260726        0.65918456176710
H           -2.08874883915429       -0.27725372839666        0.63235038047646
C           -2.89186703148832       -1.87089425703890       -0.57745446727625
C           -4.20573499926049       -0.13671620526725        0.67903174154323
H           -3.67448998516580       -2.62391442257765       -0.51910905004649
H           -3.05725501295844       -1.26815530236420       -1.46372177441769
H           -1.92774510036253       -2.36987972893130       -0.65110862311884
O           -4.72238254682374        0.07777257080558        1.90111731973090
N           -4.68915511442741        0.31154905342684       -0.39415598447642
H           -8.30104883913860        1.40912430782977       -0.83838164230332
C           -5.93508887925081        1.03835011477868       -0.35865705436041
H           -5.98820139932465        1.67604155381288        0.53932501193410
C           -6.05104814032068        1.90113366440331       -1.62921638564517
C           -7.08379323922590        0.05453053404376       -0.22956376222151
H           -5.05689205494965        1.94244632728186       -2.07566300723725
H           -6.70012012417910        1.40351007747559       -2.35500065368209
C           -6.54502954027915        3.33232406944093       -1.37367661156226
O           -8.32172476157591        0.49144938079635       -0.53749481686923
H           -7.40927356104872        3.31189564663416       -0.69471779650964
C           -5.45055896111158        4.17129796861184       -0.71799108876825
C           -6.98502081484225        3.97813207855715       -2.68643735013760
H           -4.60203241886916        4.27043706501133       -1.39088818838402
H           -5.82179525186320        5.16602382461903       -0.48200309542708
H           -5.10150394436260        3.70949218204858        0.20224496525987
H           -7.80149954012385        3.42238760314870       -3.14360670126017
H           -7.32096093595992        4.99811367323366       -2.51490751888859
H           -6.15479284555966        4.00446000626971       -3.38823119235911
N           -6.84619489292151       -1.10258492837268        0.19734097588294
H           -5.67158294546690       -2.13101279347639        0.90306802229243
C           -7.83461228780464       -2.12749804825987        0.41523837766870
H           -8.66824262646520       -1.76309284849240        1.02904289821460
C           -8.39048851772288       -2.69621446019800       -0.89349959077734
C           -7.11303134428121       -3.25225817029994        1.18065487965482
H           -7.57102895284479       -3.00329946186281       -1.54048452138790
H           -9.01316538700595       -3.55853358572592       -0.67250988706774
H           -8.98263234984458       -1.94193448828275       -1.40497691910631
O           -5.81011716576074       -3.02529183327106        1.32039626630127
O           -7.66366122776189       -4.23380622696837        1.59363607464337
