42
 energy: -62.486127633336 gnorm: 0.000689792630 xtb: 6.7.1 (edcfbbe)
N           -1.26460120279345       -0.88377439309641       -1.71748930228195
H           -0.38167070990478       -1.37951183263039       -1.71798088415750
H           -1.06360102043532        0.09744886249890       -1.89061378306761
H           -2.99368566684117       -1.03789689861122       -2.47950453790049
C           -1.94855340215178       -1.02960355394071       -0.43267144611333
H           -1.91137809883596       -2.09326970378629       -0.16312237926481
C           -1.35958274225788       -0.20137729054291        0.70539403149563
C           -3.41540685286596       -0.69132145912967       -0.66675669468620
H           -1.35595706066723        0.85324405440007        0.43771845590540
H           -1.96991912191624       -0.32623341915086        1.59300288942496
H           -0.34049122530359       -0.51720889984942        0.91836552423555
O           -3.80611661101302       -0.84923821354826       -1.96421909316853
N           -4.12845381111621       -0.34140733721464        0.29680649622676
H           -5.25635881891236       -1.78138520211628       -1.38791536958378
C           -5.50674735548838        0.08440826645377        0.30117411050559
H           -5.76582580450748        0.19272232250689        1.35903127844423
C           -5.53786860730652        1.47891827753380       -0.37442979823147
C           -6.53894905553385       -0.84188945228701       -0.31773440406482
H           -4.73299458114703        2.05966619494940        0.08406598660580
H           -5.28947226693209        1.33949107422735       -1.42995533218623
C           -6.84113942204254        2.27206982072024       -0.27249285432567
O           -6.15710426215397       -1.90022628019033       -1.04907776668675
H           -7.63317639302957        1.70887245817614       -0.77122314732087
C           -7.24756625578692        2.52367701856499        1.17656791138692
C           -6.66957416601482        3.60347351986415       -1.00394578717368
H           -6.46283138401898        3.06428303635689        1.70224166851743
H           -8.15633249952424        3.11936060565793        1.21009522379454
H           -7.43377270887517        1.58947532809551        1.69872661132603
H           -6.39222107557533        3.44237634250625       -2.04324055228414
H           -7.59941912434296        4.16584414897181       -0.98272948654033
H           -5.89488438897024        4.20331563162700       -0.52999159117836
N           -7.75601343897947       -0.55328283945839       -0.13579922657097
H           -9.09940114059846        0.56827988170589        0.46080090783879
C           -8.80803845691542       -1.36550219963207       -0.70437976578314
H           -8.59615180702186       -1.64213337226000       -1.74534363192995
C           -9.03328683031508       -2.64688848876340        0.10807879807203
C          -10.10236143425798       -0.54430442236201       -0.65570436227027
H           -9.21545557358473       -2.39755594975540        1.15171383247675
H           -9.89454809706247       -3.17779156539037       -0.28765792545950
H           -8.15405998281340       -3.28271601326427        0.04358954630313
O          -10.02608651236299        0.52197133326680        0.13263459959958
O          -11.09722079808701       -0.85263641628857       -1.25121555553993
