42
 energy: -62.486133512165 gnorm: 0.000480271229 xtb: 6.7.1 (edcfbbe)
N           -0.71323340994061       -0.07437794576080       -0.60961082230984
H            0.07244333574486       -0.50226578362637       -1.08396715316907
H           -0.49763081229112       -0.05128400074493        0.38328209316869
H           -1.84088562099783        1.45380774699163       -0.78538727394351
C           -1.94199334879123       -0.83359016442120       -0.83385028146974
H           -2.00224656272434       -1.03738930807960       -1.91150755717455
C           -2.01586933188863       -2.15256681681980       -0.06633427830561
C           -3.10663445764554        0.10068772171998       -0.50401691077951
H           -2.05309656838182       -1.96258757686779        1.00393691283613
H           -2.90457917811570       -2.70793264205223       -0.34649823309812
H           -1.14099232919325       -2.76111422478171       -0.28823388216776
O           -2.80050758333066        1.40104555893444       -0.59199443254858
N           -4.20478552106806       -0.40861338071501       -0.16972196818291
H           -5.06957884298477       -1.86322407745220       -0.72671189439804
C           -5.47250411123746        0.24155086185838        0.08115208651303
H           -5.56589588395066        0.37730152694419        1.16539276283859
C           -5.62909592604557        1.60326996341224       -0.61979870960263
C           -6.52644194658361       -0.77668228616752       -0.35015852421763
H           -4.84524102536737        2.25697870324714       -0.23504396030985
H           -5.44025321167204        1.45211202697531       -1.68612312735380
C           -6.97286524261018        2.31694888485193       -0.45438004470902
O           -6.04761871251907       -1.94177287339991       -0.80097599276660
H           -7.74387241191121        1.73400242982289       -0.96186634182547
C           -7.35652530499338        2.48131313992972        1.01349336708530
C           -6.89114361973406        3.68617627197011       -1.12884194598261
H           -6.57686514424164        3.01749390702685        1.55159739321618
H           -8.28037685565142        3.04860033824408        1.09710363346723
H           -7.50570667083122        1.51437291394393        1.48632970310436
H           -6.61918320759545        3.58465564897161       -2.17687250513688
H           -7.85219735814366        4.19116158241986       -1.07296256447307
H           -6.14559384441448        4.31033669274867       -0.64004380499138
N           -7.75634349081537       -0.50699884117149       -0.26804233573913
H           -9.18486621821181        0.60975333349381        0.13356533000536
C           -8.75265764822727       -1.47660599847778       -0.67377852010123
H           -8.51416853767810       -1.92229489701885       -1.64736237485483
C           -8.90729706599832       -2.60109128792652        0.35834476241353
C          -10.09734529702499       -0.74651333863514       -0.77211253809467
H           -9.11924995362319       -2.17890634830036        1.33899743490220
H           -9.72841875144046       -3.24883013474859        0.06443916549656
H           -7.98994933587151       -3.18150630427358        0.41180763150361
O          -10.10240066228589        0.44164164410979       -0.17841773478513
O          -11.06252358969500       -1.21908853450692       -1.30589155542355
