42
 energy: -62.486133515621 gnorm: 0.000479052668 xtb: 6.7.1 (edcfbbe)
N           -0.72200101935901       -0.09531428582119       -0.06314451045882
H            0.13243339315937       -0.34087384956951       -0.54773795651543
H           -0.63714638178541       -0.42491087193646        0.89457365470741
H           -1.86036609470640        1.40382959053305        0.21616964161737
C           -1.88544084363045       -0.71112086839136       -0.69882209731699
H           -1.78229919448019       -0.56356363130392       -1.78182042588982
C           -2.04644476017635       -2.20210695992366       -0.40507930468677
C           -3.10839461661748        0.09079957363162       -0.26371845276360
H           -2.19266901728407       -2.35953152082167        0.66151473373815
H           -2.90908870519767       -2.59819368608741       -0.92981382292903
H           -1.15918280078060       -2.74540290771013       -0.72481097458812
O           -2.83665621261662        1.31483596286371        0.20461775714573
N           -4.24765586711791       -0.43412294822659       -0.35474386433574
H           -5.20483141458109       -1.62791240764777       -1.34997688597718
C           -5.49634920257843        0.23125761561017       -0.04784561322658
H           -5.57929064456098        0.40371040548372        1.02926854135311
C           -5.63469219210190        1.57624590023303       -0.79263012018822
C           -6.58448156723640       -0.72869059129256       -0.49709806202858
H           -4.81395944446119        2.21767369549379       -0.46954172695448
H           -5.50797749024886        1.37917839507864       -1.86127408488041
C           -6.95491642923098        2.31920415561762       -0.57453894647471
O           -6.18261813783199       -1.70791456118744       -1.31393548347956
H           -7.77633712754165        1.69054352001002       -0.92793752507166
C           -7.18599611146403        2.64783927300442        0.89779433562509
C           -6.94646631856645        3.60516532424300       -1.40035684454062
H           -6.36054433117067        3.24039917789711        1.28772088374040
H           -8.10369891617106        3.21915360498012        1.01269943773021
H           -7.27531801242033        1.74184840029393        1.49070400163132
H           -6.79792004393172        3.38736525545256       -2.45556353698594
H           -7.89283085453300        4.12853016300712       -1.29028545836580
H           -6.14768153675735        4.26616870089182       -1.06970177808198
N           -7.77335023894696       -0.56250198337684       -0.10830599432397
H           -9.07873626704012        0.49699911318879        0.60755097334190
C           -8.83318945015342       -1.44483957338228       -0.54750798558303
H           -8.75737270315065       -1.67513675964696       -1.61784863475492
C           -8.83318736568421       -2.75969950034047        0.24059121522638
C          -10.16498872466457       -0.72709771085006       -0.28949931330308
H           -8.86705370576126       -2.55155026061848        1.30824740927378
H           -9.70518209170767       -3.34519647029989       -0.03665277388455
H           -7.93114425561674       -3.32374428322677        0.01724442208997
O          -10.04241353547967        0.37540593379949        0.44016872816474
O          -11.21875102532286       -1.13875399874625       -0.68973854829096
