42
 energy: -62.486133522218 gnorm: 0.000478822446 xtb: 6.7.1 (edcfbbe)
N           -2.06129960448788       -2.11393985381813        1.05991690695042
H           -2.04601112520160       -1.80149510260376        2.02538384223850
H           -1.18333131618591       -2.58284204306763        0.87018177850907
H           -3.97104596438980       -2.38235533907985        0.79053488531848
C           -2.25290544100595       -0.98324758886016        0.15513317608329
H           -1.66518230959531       -0.09310042064974        0.41883711355521
C           -1.90878595691357       -1.40401022936111       -1.27460050274485
C           -3.72761750322889       -0.61627597339203        0.20691951444030
H           -2.50338408533452       -2.26804269535550       -1.56456331194025
H           -2.11339060367237       -0.58334199647442       -1.95577048806852
H           -0.85538491759837       -1.66542085772725       -1.34860375521112
O           -4.54274475229962       -1.62518597300832        0.54845605268632
N           -4.07232357709078        0.55440260968571       -0.09242567755924
H           -5.55783296651725       -0.26912847420753       -2.14663906244720
C           -5.45014092581820        1.00211681589392       -0.10765118237315
H           -5.69420286237604        1.35001880774068        0.90187257836299
C           -5.54368489166605        2.17865600845352       -1.09251470188930
C           -6.43824101345038       -0.08433652907377       -0.46200635729523
H           -4.89011785147165        2.96893305692611       -0.72146081270975
H           -5.14338300208304        1.86397879981500       -2.06118590298521
C           -6.96325597484991        2.72227767106521       -1.28711690316247
O           -6.30997120353872       -0.65389892773713       -1.67867889041098
H           -7.60140902030078        1.91801503287612       -1.67117865847038
C           -7.56311546644462        3.22344378080668        0.02382763760838
C           -6.93482700306180        3.84916214753297       -2.31877786650186
H           -6.90834231191031        3.96013629851119        0.48428669128914
H           -8.52739101139470        3.69028818260984       -0.16223878756588
H           -7.71602874262656        2.40316953281940        0.71954672159721
H           -6.52613559920139        3.50072103793790       -3.26496479414851
H           -7.93886925291822        4.22494578921721       -2.49903927942957
H           -6.31947965688572        4.67204977366826       -1.96142214197703
N           -7.32670386179037       -0.40799353531154        0.36862810109154
H           -8.21928360125964       -0.11438803356478        1.90788924805321
C           -8.30351150985688       -1.43498693779361        0.08233106311829
H           -8.73130528478221       -1.32172675060606       -0.92181419483642
C           -7.70516398620002       -2.84006523799106        0.21057620171401
C           -9.42455248269329       -1.29209990466498        1.12123837863702
H           -7.23443595240565       -2.95182701104156        1.18486670657840
H           -8.49493839639836       -3.57835224049529        0.10422303325839
H           -6.95561211003770       -2.99195462715848       -0.56113889782931
O           -9.11343024434741       -0.47369485853096        2.11991026841394
O          -10.46741788823373       -1.88063003269434        1.04816747881256
