42
 energy: -62.486133506748 gnorm: 0.000481281362 xtb: 6.7.1 (edcfbbe)
N           -2.59646757038271       -1.81530414452398        1.87752104598051
H           -1.71267070839583       -2.30072080335312        1.97704390085930
H           -3.32914090329531       -2.52111190445723        1.86014964618716
H           -3.58269990606331       -0.28671747784738        2.58275154539553
C           -2.63155275082640       -1.05277393566462        0.62965216924741
H           -1.73794107249505       -0.41236909986186        0.61767558352490
C           -2.66289569956196       -1.89858103325576       -0.64099240243708
C           -3.82764311309285       -0.12281687613452        0.72901147244413
H           -3.44176160635502       -2.65381837160165       -0.56897313860551
H           -2.87542879888976       -1.26066761443551       -1.49180239432185
H           -1.70574921605659       -2.39468134684420       -0.78823041576156
O           -4.14896710098302        0.24220891402091        1.98549520571679
N           -4.44220870730247        0.25095447709055       -0.30263867893365
H           -7.67122863323241        1.91937534725846        0.84787152054720
C           -5.57499671537088        1.14175839477353       -0.17270950990524
H           -5.39794562459604        1.89591986537091        0.60939230032144
C           -5.76704039395056        1.80887918168805       -1.54660170701087
C           -6.78882234511395        0.32911239292605        0.21777839402574
H           -4.82132111482952        2.28949655364856       -1.80398073228102
H           -5.93041022749020        1.00332210604001       -2.26396822286369
C           -6.90122654473749        2.83245567020252       -1.65606993576069
O           -7.85278866901650        0.97774011738510        0.74030798976320
H           -7.84474506090196        2.36463515503164       -1.35374496305336
C           -6.64534539782520        4.06483714024401       -0.78816795355355
C           -7.04871520441859        3.26124088958265       -3.11596862556901
H           -5.73029307293092        4.56008668779113       -1.10612985875459
H           -7.46644876017951        4.77201559452804       -0.88476961950409
H           -6.54042919930053        3.81497542960554        0.26614073263310
H           -7.27532384621165        2.40513109553740       -3.74657571292487
H           -7.85238366056289        3.98652021234873       -3.22069413367259
H           -6.12721126113667        3.71589421647719       -3.47262568185653
N           -6.74527666620245       -0.91805891655894        0.07767471921595
H           -5.64018672003430       -2.27121507190475       -0.00484007309933
C           -7.78158066937255       -1.82532748150742        0.49280247446308
H           -8.29236885022089       -1.49219738051483        1.40566877027462
C           -8.81973346360453       -2.03833042407111       -0.61289007927558
C           -7.07425493931192       -3.16209619034987        0.77782786616566
H           -8.32224675124411       -2.31836624421855       -1.53911568659197
H           -9.50170463582316       -2.83122259897226       -0.31866018366779
H           -9.37996007947479       -1.12062150755574       -0.77522989312720
O           -5.80579617195595       -3.17360071602132        0.37872826372212
O           -7.61127944166413       -4.09798600475918        1.30082091766856
