42
 energy: -62.486133509397 gnorm: 0.000480288892 xtb: 6.7.1 (edcfbbe)
N           -1.74343438848201       -1.18384311877657       -0.46650835925803
H           -1.12792675412040       -1.98396208834730       -0.38241139326465
H           -1.26437703204788       -0.38725477439715       -0.05425550041031
H           -2.88842254053215       -0.34475272404091       -1.78377812004930
C           -3.00254020747380       -1.42084714771876        0.24113864178303
H           -3.37319020207251       -2.40345632839805       -0.08009833939443
C           -2.89929099209323       -1.39911934333605        1.76308075121152
C           -4.00778076296134       -0.40043224909699       -0.27636327382366
H           -2.51364381984493       -0.43877794502098        2.09979073178969
H           -3.88537560566472       -1.54131788368558        2.19153648359942
H           -2.23659556397545       -2.18985189884099        2.10922656252698
O           -3.75398148273433        0.03292904593334       -1.52804483575295
N           -4.97955085285601       -0.08421924102901        0.45010896101240
H           -7.55429435563409        1.15671293646179       -1.89714539624036
C           -6.05063505107317        0.80540674260119        0.05846707546863
H           -6.42327507161263        1.21124188418358        1.01018861567181
C           -5.67052166743206        1.97511622007762       -0.86142538542360
C           -7.15931024111866       -0.08594109390942       -0.48544355055190
H           -4.67056645713425        2.30693959095516       -0.57516033305369
H           -5.59143780483797        1.62830295365032       -1.89569725818273
C           -6.63184697885493        3.17207109892704       -0.75192875545432
O           -7.86828482848266        0.30735034497138       -1.56101374232691
H           -7.66046613695987        2.81501242309263       -0.61441373419394
C           -6.27918598731555        4.03666388788668        0.45707858586649
C           -6.57614732898189        4.01333347095661       -2.02708193593172
H           -5.29090557049011        4.47433214735500        0.33248691098908
H           -6.99910717046332        4.84399559808923        0.57045623119298
H           -6.28067245759431        3.44800362925870        1.37126684147896
H           -6.88105252306102        3.43684551888192       -2.89916881486261
H           -7.23536551797036        4.87427392819979       -1.94388887845834
H           -5.56353676696829        4.37359703720204       -2.19518009373171
N           -7.36293845190055       -1.17281963641613        0.11264008725400
H           -6.89423450348347       -2.24380113046105        1.45109247193798
C           -8.35575053417268       -2.14285507590569       -0.27460302995301
H           -9.35936599904057       -1.69904572891355       -0.30084056837624
C           -8.06816721401452       -2.79265184519683       -1.63206975862418
C           -8.33236414005154       -3.23889730074374        0.80754531566934
H           -7.05156356415531       -3.18105217738658       -1.64704409382038
H           -8.76436996997309       -3.61195295222378       -1.78790960811654
H           -8.18162771854904       -2.06322749867026       -2.42946518913336
O           -7.36154946360267       -3.08224460997699        1.69592391298517
O           -9.11153762512098       -4.15183057765511        0.82784719457012
