42
 energy: -62.486133533420 gnorm: 0.000476891166 xtb: 6.7.1 (edcfbbe)
N           -1.66058290202356       -2.34156675404394       -0.35747406659486
H           -1.67942518863474       -2.77255984025016        0.56065580681891
H           -0.73936615924426       -2.48769883384982       -0.75141573988726
H           -3.48996839180500       -2.49841712350490       -0.97865345625898
C           -1.97328988830528       -0.91612378683298       -0.27451993170259
H           -1.53607075940403       -0.41422998978948        0.60023455261853
C           -1.50218972888905       -0.20383437306197       -1.54265234840549
C           -3.48820391258457       -0.79108370916176       -0.19423991072151
H           -1.93608567128597       -0.67657606791283       -2.42125308466932
H           -1.81370715355264        0.83571068571616       -1.50982427684061
H           -0.41772445401964       -0.24580643614445       -1.62032893744769
O           -4.15917102946693       -1.83304403305520       -0.71786130167542
N           -3.98000097836712        0.26493381217650        0.27689205157601
H           -5.06698944315993       -1.53071297742547        1.56079980711903
C           -5.39198780503552        0.56154990691019        0.37118176418952
H           -5.50154911958897        1.08476784914400        1.33347033804073
C           -5.76047239667162        1.53224949588808       -0.76304210017243
C           -6.32700232686479       -0.62945233517310        0.43037145493288
H           -4.87912102520003        2.14125439210602       -0.97401667460876
H           -5.98280566457796        0.93906240687664       -1.65084425785555
C           -6.94214188205187        2.45288711273322       -0.43644285864436
O           -5.97360880570172       -1.64396781576930        1.25083463302853
H           -7.71661492905037        1.86017691398546        0.05784624915863
C           -6.51671718269664        3.58414262909111        0.49745603192498
C           -7.51723725578379        3.03609980690290       -1.72576001692980
H           -5.76515573558391        4.20803080027800        0.01802283559937
H           -7.37085408237567        4.20900944827941        0.74769023770506
H           -6.09821876236776        3.19770789428611        1.42331700488346
H           -7.86772360634325        2.24946017885026       -2.38928672198239
H           -8.35571632511928        3.69184120218021       -1.50417131622800
H           -6.75943769366658        3.61589515530097       -2.24889878402806
N           -7.46234259670139       -0.56275947273770       -0.10822112245893
H           -8.48718217948096        0.10858470199724       -1.44007171673169
C           -8.43050877025701       -1.62793710816063        0.01090074249137
H           -7.96085606911444       -2.61878818261502       -0.02260114199421
C           -9.23622980890414       -1.50363794592975        1.30884151967547
C           -9.39846606644428       -1.49511491466905       -1.17441914476032
H           -9.67609491408933       -0.51063642510498        1.37956157711034
H          -10.02983780118762       -2.24539674859023        1.31098261760636
H           -8.58639484321373       -1.66568810533660        2.16528266924167
O           -9.24447977248284       -0.36735618618592       -1.85765142466869
O          -10.22465699439770       -2.32306133215209       -1.44121512795355
