42
 energy: -62.486133508947 gnorm: 0.000480410572 xtb: 6.7.1 (edcfbbe)
N           -1.84257054512678       -1.02233619448332        1.37404348857406
H           -0.90921806705800       -1.39874909855770        1.26080463914919
H           -2.33946270926331       -1.62956626359965        2.02079792957855
H           -2.77564155800715        0.60919427437613        1.74937925868227
C           -2.55060000914083       -0.98469140012212        0.09445724597517
H           -1.86977843270259       -0.54064987797935       -0.64338906580217
C           -3.02818085371676       -2.34471452482616       -0.40990119332030
C           -3.71857660116774       -0.02333401932402        0.25904850885566
H           -3.67731239608423       -2.80883649717109        0.32999305703388
H           -3.59690671865192       -2.20837330073263       -1.32317416876605
H           -2.18122281075416       -3.00034574921770       -0.60247118924919
O           -3.59634704036372        0.85012559194367        1.27323769642807
N           -4.69351900817742       -0.09012922799613       -0.53172913399611
H           -7.50846097334459        0.81145145332028       -2.22385970614944
C           -5.82341055430705        0.80806748711160       -0.38319479056592
H           -5.86789997166312        1.20266270603159        0.64185596518408
C           -5.69507115295095        1.97488772547791       -1.36765978211053
C           -7.04565827554462       -0.06962473093560       -0.58574907507627
H           -4.70011196294427        2.40449246757238       -1.23168344002285
H           -5.72425579873287        1.58969003593264       -2.39254759289661
C           -6.74521241157094        3.07773382449202       -1.15882611842042
O           -7.83321170558867        0.09538656021844       -1.66310584124961
H           -7.71993751924148        2.62373123691471       -0.94366821286266
C           -6.37014412855198        3.96330927204871        0.02761742756045
C           -6.87368145773029        3.92739345281457       -2.42288348441174
H           -5.42844306434530        4.47323630522011       -0.16411746727721
H           -7.13860164567353        4.71371765639819        0.19787307328182
H           -6.26208263221709        3.37539410122924        0.93530676619414
H           -7.19757754473468        3.32906341003682       -3.27287317476761
H           -7.60013692946297        4.72234961415508       -2.27281790538805
H           -5.91651085168114        4.38155950476823       -2.66996907938557
N           -7.24145601737244       -0.96877379801619        0.27401476124699
H           -6.75941755359521       -1.72163646365909        1.80186072542368
C           -8.31397128838574       -1.93136988687266        0.19109729381689
H           -9.28893653471226       -1.44013330132986        0.07950805614648
C           -8.12599602448157       -2.92592407490520       -0.95982383541341
C           -8.30343213015316       -2.71334401877224        1.51543192677258
H           -7.13724083256056       -3.37628004679242       -0.89964399729887
H           -8.87955150913778       -3.70487054759687       -0.88448853943220
H           -8.22476624958411       -2.41576563795449       -1.91393974243487
O           -7.25750389966071       -2.42965425047318        2.28233557644267
O           -9.14417389379837       -3.51636958554483        1.81178830918737
