42
 energy: -62.486133518153 gnorm: 0.000480068483 xtb: 6.7.1 (edcfbbe)
N           -1.54849216463153       -2.07788434668169       -0.07579498554154
H           -1.29335677267363       -2.04781753287976        0.90584258952583
H           -0.73206462624525       -2.36774838755155       -0.60075091853636
H           -3.45623674379219       -2.50654805635730       -0.05696270424688
C           -2.02165719698539       -0.77271767753987       -0.53260920571677
H           -1.44391390619130        0.07560908357696       -0.14010898010947
C           -2.00657278661819       -0.72421475551777       -2.06085974101447
C           -3.46348048760342       -0.62793330159159       -0.07154999431085
H           -2.58566217291576       -1.55076783879271       -2.46706349528542
H           -2.44085302670118        0.21166762079129       -2.39893720862103
H           -0.98613203578912       -0.79523355867433       -2.43164380484777
O           -4.11109567646996       -1.79537339180035        0.09595445917322
N           -3.93415765519689        0.52541952912955        0.07551145345759
H           -5.23365205477515       -0.70727414618913        2.29201586741677
C           -5.30218664021779        0.84703138244576        0.41875358705241
H           -5.24095083753175        1.42914399232421        1.35060869912384
C           -5.83503186890087        1.75445184228551       -0.69955663238971
C           -6.20298158818480       -0.34296111904133        0.67234966628262
H           -5.06169706379582        2.49490478326368       -0.90995547019346
H           -5.96286771564638        1.13831697628492       -1.59001752729521
C           -7.15221113056768        2.46263685253298       -0.36663437291602
O           -6.04082256926419       -0.99266888019659        1.84782293541553
H           -7.84214833312883        1.73067622999477        0.06311709168425
C           -6.94258879613109        3.59232860126886        0.63943366446756
C           -7.77206736177583        3.01714454663224       -1.64805290670124
H           -6.25106552996521        4.33147675924566        0.24037048240047
H           -7.88726400039129        4.08752490583951        0.85210079914407
H           -6.54187861505617        3.21929794484238        1.57864701300980
H           -7.98758771874467        2.21658762164792       -2.35132938040958
H           -8.70170809409191        3.53619617277903       -1.42687998164978
H           -7.09218177439377        3.72078254527973       -2.12377888137233
N           -7.10030194994481       -0.64641474748632       -0.15511188774172
H           -7.77464805593748       -0.50130302097879       -1.80708784244069
C           -7.98488013724369       -1.77002010712930        0.04124536590284
H           -7.44775243185206       -2.65094150531613        0.41391475378473
C           -9.12305535351892       -1.43432041035642        1.01149483940710
C           -8.59965072107686       -2.09662277031205       -1.32823106917671
H           -9.64486320217878       -0.53915683003565        0.67789939184604
H           -9.82454016194528       -2.26329901328959        1.04116822321354
H           -8.72273540647524       -1.26245421354298        2.00744351842651
O           -8.35662488205717       -1.16849112865102       -2.24608090218845
O           -9.25257200700100       -3.08105628550038       -1.53776145932204
