42
 energy: -62.486133514857 gnorm: 0.000479696606 xtb: 6.7.1 (edcfbbe)
N           -1.34206132450984       -0.90529655434473       -0.54662402406268
H           -0.70771404126603       -1.68986952060272       -0.63341355451988
H           -0.93464257478776       -0.25579682035484        0.12074494767672
H           -2.33174625431867        0.27781108301895       -1.65405283783764
C           -2.65440570833682       -1.34357448165635       -0.07059027961208
H           -2.93410406136304       -2.22983725175546       -0.65447258318391
C           -2.71447177730770       -1.68166664859508        1.41598787462632
C           -3.65737588347187       -0.25254082093836       -0.43753501399126
H           -2.40336638207570       -0.82309678151574        2.00774283044456
H           -3.73529115399207       -1.92958422792828        1.68498477817552
H           -2.06327770421536       -2.52356577782110        1.64237200785824
O           -3.25322012382149        0.54234504345201       -1.45066762532815
N           -4.74734917735572       -0.21463738346138        0.17915475281910
H           -6.64034498489623        0.55251777975457       -2.35882919124018
C           -5.83940607839613        0.70829493118232       -0.03132897186314
H           -6.15641192566701        0.97347630523821        0.98507852945775
C           -5.56675249264880        1.99109937597140       -0.82382538657744
C           -6.94849213839013       -0.15918857667379       -0.60445457961747
H           -4.72155490170254        2.49832919075537       -0.35400951094235
H           -5.24958527585829        1.75487459918188       -1.84386824041827
C           -6.77075385565895        2.94453938944031       -0.85661622714157
O           -7.19226017874567       -0.11403231215147       -1.92858687562460
H           -7.67652977666734        2.37903617508684       -1.10588220203500
C           -6.98962159443716        3.61538133564181        0.49760601042652
C           -6.55368620650249        4.00859722598071       -1.93242105188173
H           -6.10551544476703        4.17891852534989        0.78863058624789
H           -7.83063650025719        4.30276467570498        0.44361134894813
H           -7.20389110741308        2.88282170904966        1.27127040573218
H           -6.45020395625109        3.55762254763862       -2.91755285979287
H           -7.39479567357287        4.69702273585629       -1.96165573586184
H           -5.65158961152575        4.57886252819620       -1.72117313783390
N           -7.53185571085051       -0.96067843182013        0.17039817464495
H           -7.89655022067003       -1.52947290911854        1.84632793740496
C           -8.52663727482217       -1.89910381251419       -0.29514335774584
H           -9.25922732908580       -1.42381410761871       -0.95963920054357
C           -7.89036773030309       -3.08563065095616       -1.02834266768679
C           -9.25464483265177       -2.43467561736703        0.94745460317058
H           -7.12036019450600       -3.53426815528992       -0.40395269532447
H           -8.65536174135059       -3.82665618855788       -1.24259652432759
H           -7.44052718768170       -2.74930991801964       -1.95886838459133
O           -8.66484272945984       -2.10038400616515        2.08778060196503
O          -10.24475842136602       -3.10966001704118        0.88589249498979
