42
 energy: -62.486133508213 gnorm: 0.000480526859 xtb: 6.7.1 (edcfbbe)
N           -2.27650849702745       -1.75779519510175       -0.69014616913846
H           -1.68688143799316       -2.54254340283943       -0.44127511711254
H           -1.66777711454677       -1.00280055464635       -0.99493624527196
H           -3.85072578878980       -1.36426459739691       -1.72235868671339
C           -3.07511101047648       -1.31991985243123        0.45465864221159
H           -3.49556947499671       -2.21736906838902        0.92529703480057
C           -2.30658420868276       -0.51757337164433        1.50200496451519
C           -4.25556036614019       -0.53148352869010       -0.08811200905676
H           -1.85044831397656        0.35788316491229        1.04326574984211
H           -2.99625284118556       -0.18324152781495        2.26919173980327
H           -1.52672731609538       -1.12711335227105        1.95380746011004
O           -4.52617207022536       -0.73800033893957       -1.39053084818322
N           -4.92267242016083        0.20509608652430        0.68326322173219
H           -7.29295660473774        0.95165256718611       -2.00597383159226
C           -6.07960380630447        0.92257524295772        0.17740737233520
H           -6.54698094125030        1.35888615198079        1.06999408902895
C           -5.67361851647512        2.05121942305590       -0.78023126482041
C           -7.06922569270712       -0.07633228065568       -0.40097837250371
H           -4.75000761129250        2.48525841482349       -0.39002307789328
H           -5.42841026430088        1.62645132905596       -1.75881974064914
C           -6.72492620567570        3.16576597377014       -0.91005452898073
O           -7.64250572538937        0.15015911024030       -1.59703345573599
H           -7.73130945876253        2.72949959665714       -0.92238209867886
C           -6.64857703226035        4.12110715890320        0.27926454059278
C           -6.51441614656759        3.93833937615940       -2.21233665874000
H           -5.68600422957471        4.62781421763392        0.29588105024641
H           -7.43089113533246        4.87356423039679        0.21219151108255
H           -6.77009047922860        3.58628706472204        1.21774443702753
H           -6.62067712829894        3.29082623428227       -3.08131737699787
H           -7.24159870875138        4.74211519970830       -2.29896471595565
H           -5.51853054272785        4.37588168070730       -2.23306747262069
N           -7.31040342340189       -1.10467116918711        0.28517056495192
H           -7.16126280621671       -1.98274103762165        1.84303395145007
C           -8.19544533266131       -2.15247184074086       -0.16430792850847
H           -9.15596889932906       -1.75297519189609       -0.51409359279836
C           -7.57054368201080       -2.99126362257000       -1.28490782134630
C           -8.44799827537750       -3.06898185247205        1.04318806622298
H           -6.59878197019507       -3.36464540150697       -0.96733510289077
H           -8.22062420568962       -3.83248608090314       -1.50793643995590
H           -7.44162376327048       -2.38323733717964       -2.17635909056047
O           -7.69142204610053       -2.77848700859083        2.09370148067440
O           -9.23808530982923       -3.97235155015762        1.02528861585558
