42
 energy: -62.486143125566 gnorm: 0.000732945990 xtb: 6.7.1 (edcfbbe)
N           -0.94937255867009       -0.44981111046404       -0.69373896338163
H           -0.24671548413120       -1.13031666080867       -0.95498504389017
H           -0.57564685297063        0.09678680619287        0.07742818777723
H           -2.06803838292438        0.84684357666519       -1.48057135051682
C           -2.19124727539629       -1.10226481375085       -0.28397536310092
H           -2.40101910543405       -1.89096355915732       -1.01878203738350
C           -2.15005928608403       -1.71166686917300        1.11619195604279
C           -3.31127462575010       -0.06615496242814       -0.41933248611918
H           -1.92175339241507       -0.94153637339868        1.85020688295546
H           -3.11415194731462       -2.14152236994695        1.36590864697921
H           -1.38876062532319       -2.48740972139696        1.16894095290619
O           -2.99998919295271        0.97439277196328       -1.20029429192704
N           -4.38289914792763       -0.27821670272955        0.20306777961541
H           -5.30178382733541       -1.76907842914686       -0.33155924000971
C           -5.62055953080943        0.46575902589860        0.17600299241142
H           -5.76313638519868        0.86193628181618        1.18725135114818
C           -5.71991667529493        1.61942255585122       -0.83791132803524
C           -6.72121532121418       -0.55659737858457       -0.07152576777708
H           -4.82458305976612        2.23434484355738       -0.74440955318986
H           -5.72538709036204        1.19105213097218       -1.84350781991056
C           -6.95014343162006        2.51313782593606       -0.65829451454591
O           -6.27425347091038       -1.79508673504809       -0.45067394714039
H           -7.83211768757867        1.87441940689324       -0.56915545419317
C           -6.84012943493974        3.36681691932816        0.60220117415444
C           -7.10367397766442        3.41247120147923       -1.88401491411948
H           -5.93830545081593        3.97631385837568        0.57619917424632
H           -7.69856765392355        4.02932875743096        0.68102128706217
H           -6.81676158833073        2.74558149604285        1.49319409120292
H           -7.22627119727111        2.81849524808534       -2.78691202020318
H           -7.97494737675713        4.05415253833253       -1.77753188648761
H           -6.22546034468688        4.04401270985251       -2.00571727382650
N           -7.91831021542572       -0.23665309139515        0.10584319509928
H           -7.46793026099088       -2.75967080852665        0.46798701190233
C           -9.07736877471255       -1.06142240654176       -0.13557451082680
H           -9.93763782553713       -0.39259557109239       -0.01415693976917
C           -9.11855820592718       -1.68361201579280       -1.53792260363579
C           -9.24995591590062       -2.18151873658383        0.90098865027162
H           -8.29702575449770       -2.38140763585502       -1.68535583545115
H          -10.05992711558002       -2.21009690968411       -1.67435871336994
H           -9.04227415643826       -0.89580157851163       -2.28425833750530
O           -8.21488732124126       -3.00748709633361        1.04817748695655
O          -10.26417436897408       -2.32640207524098        1.52284434222873
