42
 energy: -62.486133511010 gnorm: 0.000480024141 xtb: 6.7.1 (edcfbbe)
N           -1.95182368797441       -1.57954083915109       -0.82709867998958
H           -1.35206409559584       -2.37730205094791       -0.65716856928659
H           -1.35246267348672       -0.77236666879881       -0.97627365396223
H           -3.46767393354643       -1.13718184733535       -1.89232221484966
C           -2.83850434086895       -1.33590529821485        0.31118195907862
H           -3.23583297538349       -2.30648586851079        0.63342708427027
C           -2.17834677922117       -0.64325399678124        1.50035052246686
C           -4.02765260551196       -0.53805310531896       -0.20285075868651
H           -1.74124002490733        0.30316334359215        1.18727118893183
H           -2.92998909768818       -0.44041616098472        2.25534392321191
H           -1.39737364593362       -1.27162278181953        1.92351525425456
O           -4.20621151010248       -0.59801029069245       -1.53964424015576
N           -4.76078964034211        0.07643569870003        0.61116633144738
H           -6.34394078561157        0.44659334424161       -2.24898963738954
C           -5.93740806610062        0.81267525517831        0.17785496627089
H           -6.41935557122083        1.12278520197972        1.11152016401260
C           -5.56662667082569        2.05334998974566       -0.64229439653712
C           -6.88875810853986       -0.14696654841673       -0.51269565644511
H           -4.83798513324570        2.61967939608749       -0.05719931896013
H           -5.05803416681038        1.74851265580340       -1.56268829816718
C           -6.75864778769567        2.96064822417382       -0.97681471776494
O           -7.00048349991670       -0.14038771707790       -1.85232617446585
H           -7.58039189999445        2.35261753414624       -1.37164309515186
C           -7.26381462616238        3.69485194947738        0.26296712793652
C           -6.34720121042112        3.97070419438079       -2.04794283596441
H           -6.46803992557739        4.29501955617446        0.69922997027726
H           -8.08520015071893        4.35636594260517       -0.00242837721265
H           -7.62265972273339        2.99690693156616        1.01448582024768
H           -6.03331771943724        3.46951422498120       -2.96167875240247
H           -7.17930067977066        4.62705480754766       -2.29046591877117
H           -5.52136607208789        4.58303984621368       -1.69162540306315
N           -7.49808663888078       -0.97420303668989        0.21813348438219
H           -8.02202400457326       -1.52341991507605        1.85640753801057
C           -8.35753691006826       -1.99749150721809       -0.33228840834451
H           -9.05556501054249       -1.58844746691916       -1.07354315267829
C           -7.55367353092421       -3.12976477509931       -0.98218310135113
C           -9.16413162190867       -2.58488610470861        0.83579124120232
H           -6.82254562294220       -3.51552105149715       -0.27404950982478
H           -8.22982043940919       -3.93018511040612       -1.26903167054711
H           -7.03475798576621       -2.75944169284523       -1.86261577130166
O           -8.75170741155941       -2.16661807890848        2.02535871337672
O          -10.06384620759879       -3.36421496117134        0.68289643257144
