42
 energy: -62.486133488988 gnorm: 0.000481866397 xtb: 6.7.1 (edcfbbe)
N           -1.68373025906649       -1.01898823664540       -0.14416336359164
H           -1.07509706530393       -1.81402016071588        0.00866665776662
H           -1.25374689693524       -0.21539942662979        0.30637863664695
H           -2.66187132623298       -0.19095935591609       -1.55919044200723
C           -3.00746919155109       -1.25822493598289        0.43224025371040
H           -3.32719029846770       -2.25716114033143        0.10927449292437
C           -3.06384128345594       -1.18419715881169        1.95503492784047
C           -3.97220854579765       -0.27027326882750       -0.21929075790654
H           -2.74078247960197       -0.20230989513463        2.29484603527973
H           -4.08375384835366       -1.34355594862693        2.28606637565951
H           -2.41955599370003       -1.94223437164608        2.39558179424717
O           -3.55622655383229        0.18374696263981       -1.41933168492561
N           -5.04112714041172       -0.01098459360281        0.37798035409429
H           -8.25080259694706        1.27293566436393       -1.22622037202434
C           -6.13327881529328        0.81907175127829       -0.05057511581474
H           -6.40327911632328        1.39553737138799        0.84864384923246
C           -5.91351397811764        1.80203090439961       -1.22008781834403
C           -7.30258207356039       -0.12083589653389       -0.29981835172202
H           -4.84425690695022        1.97432686328988       -1.32927666503370
H           -6.24961481292329        1.34088058008905       -2.15325645106960
C           -6.59394509618694        3.16569250507415       -1.01495566822450
O           -8.38448100880581        0.35704157492653       -0.95057533430257
H           -7.59337201184832        3.03324574050950       -0.57738634407720
C           -5.77930838412912        4.02753150252033       -0.05187403290160
C           -6.74868633641499        3.88161414148005       -2.35585991340203
H           -4.80323612654205        4.24668778535074       -0.47912816095089
H           -6.28821613312124        4.96895022481090        0.14255722053994
H           -5.62955900583029        3.51793787047505        0.89719891919663
H           -7.37884708288793        3.31182052087610       -3.03637449280396
H           -7.19851068795662        4.86181640244783       -2.21538560302573
H           -5.77595698123457        4.01494727561879       -2.82368485618487
N           -7.22513774094625       -1.29483811677506        0.13804518554670
H           -6.31143337966087       -2.42043755491282        1.14584562242433
C           -8.25733172652255       -2.28980574151997        0.00304327901600
H           -9.22882337607806       -1.91711818559833        0.35287348652575
C           -8.40972420982953       -2.79127738929144       -1.43632822063737
C           -7.83148522506132       -3.46963462275800        0.89759885054222
H           -7.44306846666828       -3.11161643442434       -1.81996939490408
H           -9.09498283053705       -3.63407450462590       -1.44990664964081
H           -8.79794196715653       -1.99759332531873       -2.06934301127141
O           -6.63203047046086       -3.31181558475511        1.44024952088878
O           -8.51618383701410       -4.44048540539620        1.06879202191687
