42
 energy: -62.486133508103 gnorm: 0.000480204490 xtb: 6.7.1 (edcfbbe)
N           -2.83788807558973       -1.97359145144911        1.83750741318191
H           -1.94791313085484       -2.42856315175362        2.00045230059672
H           -3.52286464301027       -2.70145689232386        1.64287695811913
H           -4.07374521501695       -0.71085686239279        2.55422985208596
C           -2.75602481552681       -1.05887973944202        0.70073087064353
H           -1.89176004740800       -0.40228992437234        0.87017313617168
C           -2.61201890623301       -1.73565799362777       -0.66153310751503
C           -3.99475250606827       -0.17958041845666        0.75894334122137
H           -3.38817441497619       -2.48630403602166       -0.79038407431969
H           -2.71504122742649       -0.99100667574557       -1.44322264033271
H           -1.64051394000669       -2.21853243868827       -0.74427100465098
O           -4.55972848779882       -0.08684488632678        1.97457231756440
N           -4.40212656402327        0.42180213765157       -0.27066317271055
H           -7.87586496513390        1.88301648994299        0.46055936115095
C           -5.61757744901999        1.20230629997103       -0.20246741267840
H           -5.53535013119545        1.96651272537706        0.58566588411487
C           -5.77406292779434        1.86287118556159       -1.58560756775456
C           -6.79904628985960        0.32055969564474        0.14468390375693
H           -4.81680100064169        2.33815894666757       -1.80668459879294
H           -5.90937917500318        1.05690859381364       -2.30900783895910
C           -6.89485944871633        2.89358120930846       -1.75666013720235
O           -7.96824215139789        0.92250681389104        0.45001937458141
H           -7.86547439245306        2.41605118672744       -1.58026900870447
C           -6.73385128019969        4.08577366613056       -0.81289755684314
C           -6.89160337649742        3.39040742906851       -3.20297596791122
H           -5.77580290338777        4.57082028692790       -0.98713465948563
H           -7.52182863556463        4.81478250698256       -0.99027773855003
H           -6.77650498053761        3.79803877893136        0.23636791059792
H           -7.02775446976494        2.56224643237280       -3.89403295719922
H           -7.69577801887807        4.10525897658047       -3.36198600180584
H           -5.94759802027679        3.87853740053062       -3.43421123743049
N           -6.64220253819803       -0.92512179676215        0.19568083712779
H           -5.49034268290625       -2.21443643782646        0.27406793176286
C           -7.66034238166373       -1.85810334290486        0.60258069417348
H           -8.24553151148304       -1.48708039701053        1.45347622579208
C           -8.61156186275284       -2.20374202623439       -0.54727399476075
C           -6.91280170414446       -3.13309415043628        1.02679269430360
H           -8.04151529094594       -2.52778935436905       -1.41582490712592
H           -9.27600165881055       -3.00512555522514       -0.23660650411238
H           -9.19931864233526       -1.32941523831937       -0.81553916083244
O           -5.62345184273007       -3.10655711831721        0.69555967375887
O           -7.43318743440829       -4.05813825962166        1.58352521762350
