42
 energy: -62.486133514215 gnorm: 0.000479604423 xtb: 6.7.1 (edcfbbe)
N           -2.11935472188509       -1.66584384674286        1.39959256968165
H           -1.16090495184716       -1.99177511962581        1.38976533560717
H           -2.71619581043734       -2.47139617115419        1.56752263181953
H           -3.25143914675643       -0.32811359553571        2.18075789218207
C           -2.47559464381582       -1.04362394115119        0.12563150659359
H           -1.66565377435504       -0.35145959267628       -0.13815926903981
C           -2.69522467819411       -2.02545306178438       -1.02364089872236
C           -3.71795795150745       -0.19801152325641        0.37101627383328
H           -3.48517549037061       -2.72842496412028       -0.76769869733936
H           -2.99771472280975       -1.47923895611199       -1.91004719455061
H           -1.78185063829733       -2.57884496544142       -1.23307641027768
O           -3.94549375514805        0.11812569545597        1.65397735844455
N           -4.42691750955991        0.15723914369222       -0.60609620960502
H           -6.61949691060754        0.27865774210422       -2.51527572777113
C           -5.62265791413417        0.95647449709560       -0.39504035830853
H           -5.69277204391773        1.29801895970416        0.64388911706284
C           -5.60529444909247        2.15176839228805       -1.35171416444010
C           -6.75327542713870       -0.01968430355671       -0.63676818886598
H           -4.79084558460599        2.80861149386230       -1.03931698970555
H           -5.35244722472456        1.80466935318769       -2.35890340392718
C           -6.91413889812224        2.95164234760315       -1.38258164821933
O           -7.14725038444505       -0.24830453396109       -1.90178441864795
H           -7.74098847384497        2.28741551126991       -1.65881692763763
C           -7.23091795219396        3.56005801985635       -0.01839764431205
C           -6.80986873891470        4.05222715686865       -2.43770508032502
H           -6.40087617664321        4.17248824277587        0.32720121794531
H           -8.11547107527607        4.18911757207705       -0.08640753032146
H           -7.42379586775584        2.78605414631511        0.71949342853913
H           -6.60608371911668        3.63316338773181       -3.42102753264425
H           -7.73838474842477        4.61495998877807       -2.49327929595944
H           -6.00648986459799        4.74134187900413       -2.18607701534889
N           -7.19311907507987       -0.66291021732187        0.35284160893396
H           -7.28476387327365       -0.88791596813965        2.13951090135614
C           -8.18394245599648       -1.70706216336887        0.22578076115057
H           -9.04737436424520       -1.37667732133001       -0.36520410502556
C           -7.60689073232319       -2.97679672680118       -0.41003240408947
C           -8.65754070919862       -2.04988619347825        1.64702635005413
H           -6.71585202315627       -3.28783685378850        0.13207069761206
H           -8.34795753511258       -3.76944928523919       -0.36157924748138
H           -7.34307572205523       -2.78806340454325       -1.44725830469766
O           -7.94589436540567       -1.45971010643473        2.59866591306496
O           -9.56924715019128       -2.79757651941595        1.87008022133371
