42
 energy: -62.486133507517 gnorm: 0.000480305352 xtb: 6.7.1 (edcfbbe)
N           -0.92503037911024       -0.39437990334894       -0.77443432354075
H           -0.22234257489335       -0.87867961840454       -1.32035886722641
H           -0.67550073724528       -0.49847834571721        0.20560332363892
H           -1.89183512836561        1.28835765706468       -0.77769220111985
C           -2.25145018224387       -0.96677372712374       -1.00893885437388
H           -2.38738582270564       -1.02877606771979       -2.09681143330413
C           -2.47830989451761       -2.34607233544290       -0.39806821165573
C           -3.27668674132429        0.04507066686573       -0.51458067032228
H           -2.30359625135867       -2.31441853156503        0.67544674440452
H           -3.50794380807738       -2.64062277646022       -0.56857485925315
H           -1.80853256307122       -3.07735418344899       -0.84618929391163
O           -2.83740527619881        1.32136897591054       -0.52929395085536
N           -4.40112903836946       -0.36286455151465       -0.14188957321892
H           -7.19518952356474        0.30600260567170        2.02138721356563
C           -5.49664957290692        0.47621165655563        0.27167009245440
H           -5.30329257129060        0.83009159221495        1.29587464280832
C           -5.74397391276203        1.68171334593910       -0.65887294167196
C           -6.73772878868564       -0.38840863887448        0.25331512231298
H           -4.84672268876337        2.29997384765414       -0.67373746240443
H           -5.89785636214336        1.27109667708408       -1.65850233379655
C           -6.94595479409544        2.55145763638450       -0.27525983182249
O           -7.57220593630226       -0.28317108738474        1.35734428855020
H           -7.82748960648355        1.91621260610866       -0.13487482120016
C           -6.68805441343598        3.34091113674286        1.00765519148983
C           -7.24899898529907        3.51731825312547       -1.41952189710812
H           -5.82178482530647        3.98694305395701        0.88083773469371
H           -7.54754346566217        3.96334680594831        1.24651113628463
H           -6.50076416447176        2.68927538643875        1.85904727213165
H           -7.49311445005817        2.96877095528691       -2.32567384912371
H           -8.09369900396447        4.15418737847818       -1.16746607380380
H           -6.38700636371734        4.15021277796991       -1.61985993876864
N           -6.96276968605670       -1.12043883130492       -0.73083583259453
H           -9.13328584988751       -0.34451679597642        0.45443163719758
C           -8.07423934395003       -2.01383539543431       -0.92530856355890
H           -7.83481295906537       -2.57998440252156       -1.83296432705324
C           -8.30722340246245       -2.99611263647253        0.23111670906209
C           -9.38745648650644       -1.26878651227280       -1.21062885786807
H           -8.60360079301435       -2.47905808867418        1.14112938017663
H           -9.08681144262642       -3.70219550319852       -0.04423629388690
H           -7.38704074157191       -3.54147332618284        0.42756123218039
O           -9.76774026908750       -0.38645024498320       -0.28626878179226
O          -10.04603245640807       -1.47769717040782       -2.18915250936040
