42
 energy: -62.486133508264 gnorm: 0.000479803963 xtb: 6.7.1 (edcfbbe)
N           -1.46559785727991       -2.09803678965449        0.36015048896067
H           -1.67757979118387       -2.40945939640481        1.30259010008569
H           -0.46364224760935       -2.16891194386630        0.22699638699283
H           -3.03953108212776       -2.54771751036808       -0.61963275023748
C           -1.92088988609698       -0.72346682918748        0.15613853369085
H           -1.73243246496642       -0.05809275076886        1.00881011910868
C           -1.25641695575800       -0.14094288854882       -1.09194344147343
C           -3.42352079945513       -0.78267206501144       -0.08264592462653
H           -1.43771509063539       -0.78532064403536       -1.94996620270088
H           -1.66380546686504        0.84475085160285       -1.29554657605613
H           -0.18236819365197       -0.05347097442061       -0.94294200522928
O           -3.82082245853712       -1.95479900030116       -0.64702923116402
N           -4.11430645892114        0.21488753637309        0.20376055896623
H           -5.41104097571845       -1.55527303904033       -1.40077035943322
C           -5.51223439219106        0.51007060698064        0.07457974804100
H           -5.79112269026116        0.95618441557113        1.03458438961279
C           -5.62331045847755        1.59662750671973       -1.02340615326310
C           -6.54847704282119       -0.55549423254732       -0.22896287706860
H           -4.82009970651549        2.31439332770913       -0.84630166021337
H           -5.43862489984801        1.12078609216478       -1.99082347112159
C           -6.96529318445226        2.33331389747208       -1.07057115853614
O           -6.35670240582737       -1.45184064788569       -1.20415141434438
H           -7.77307621803715        1.59715753091940       -1.12481154761191
C           -7.17968124373992        3.20008752223671        0.16705390498456
C           -7.01865925532144        3.20121726093376       -2.32745905067571
H           -6.38679838323868        3.94034358834416        0.25274497269957
H           -8.13109296048412        3.72101643334618        0.09628701328779
H           -7.19336049149919        2.60004901297566        1.07234060501138
H           -6.90851457590655        2.59478984901819       -3.22371657480145
H           -7.97027500167801        3.72345547314252       -2.38480538909530
H           -6.22112261881066        3.94142117703597       -2.31218994272447
N           -7.64401188273405       -0.45072680869664        0.39438260496777
H           -8.80221968883663        0.60786279830838        1.28726600332909
C           -8.76163624132762       -1.32335661341445        0.10877603409532
H           -8.86838344940713       -1.51572159990415       -0.96676624388471
C           -8.63056447815966       -2.66423120589476        0.83875084160263
C          -10.03008900826727       -0.61566527752358        0.60700711945416
H           -8.47586041105447       -2.49352543079542        1.90228142952897
H           -9.54150711793952       -3.23914660733272        0.69811356711247
H           -7.78535035232979       -3.22121886515954        0.44185051858707
O           -9.78246253908976        0.49377686927316        1.29330987474668
O          -11.13599083419479       -1.03512631298453        0.40560194899128
