42
 energy: -62.486133513714 gnorm: 0.000480185500 xtb: 6.7.1 (edcfbbe)
N           -2.90333431892208       -2.00713368713975        1.07015826482814
H           -2.21994423104963       -2.51801924290094        0.52355249561233
H           -3.62983166438222       -2.66271606441663        1.34980922317109
H           -2.94701593709274       -0.79764679297396        2.44744926263389
C           -3.49433666446107       -0.91779352922017        0.29053560505302
H           -2.65821011299750       -0.29193976458819       -0.06346754540340
C           -4.25093658234076       -1.42536966381536       -0.93331090566528
C           -4.21128930699941        0.00067025902269        1.31531996393704
H           -5.02262836006832       -2.13302448737511       -0.64491052249443
H           -4.69929710057058       -0.61598665289546       -1.49865429937924
H           -3.55032711875631       -1.94246832283149       -1.59025070495892
O           -3.58375509657919       -0.04973345992453        2.49662528876484
N           -5.12037920915982        0.86387101621741        1.23618090630476
H           -7.20276362849783        0.85574945054983       -1.93132154558716
C           -6.10959013990027        1.17087970461169        0.25087370209960
H           -6.86076326035747        1.75729832106902        0.80331211888719
C           -5.53386862324807        2.07362117720630       -0.86563007069146
C           -6.85549193923609       -0.05067388433017       -0.27206640342602
H           -4.62675936179278        2.53375287996691       -0.46891110371013
H           -5.22624151624694        1.46926230378398       -1.72524305720781
C           -6.48615648443832        3.19334917088433       -1.31957788328049
O           -7.40200548201856        0.01246632116385       -1.50498562560628
H           -7.51375411380828        2.81003043769066       -1.37821030391160
C           -6.47413288442333        4.34386314943179       -0.31560179228038
C           -6.08133483134926        3.70158371594397       -2.70321059211800
H           -5.49253928547316        4.81156418311288       -0.29273987034969
H           -7.20789780045323        5.09755370137062       -0.59182798323838
H           -6.70441081746795        3.98949937760008        0.68568294185397
H           -6.14372316398997        2.91288071149433       -3.45154489405067
H           -6.73284625947693        4.51481769368423       -3.01366067974836
H           -5.05907835550708        4.07269533185354       -2.68257584817845
N           -7.00218899288206       -1.00429291396197        0.53167764500906
H           -6.06203150535617       -1.79894130420084        1.91077678161386
C           -7.64924233708313       -2.27165498733173        0.32493745208439
H           -8.56827227950587       -2.25431088359292        0.93057537890617
C           -7.99527456523158       -2.71522788421927       -1.09412699708915
C           -6.73319917638897       -3.30811304205090        1.01020140796612
H           -7.12329781615338       -2.64981957743968       -1.74034250957074
H           -8.32312152445102       -3.75101095707835       -1.05932360570041
H           -8.78477455549526       -2.09721884991861       -1.51050698728177
O           -5.91490692738808       -2.77490217214434        1.91633160238267
O           -6.74523668965610       -4.47942554067533        0.75694904544376
