42
 energy: -62.486133491005 gnorm: 0.000489239114 xtb: 6.7.1 (edcfbbe)
N           -1.39629041599956       -1.46846893775164        0.64536377648906
H           -0.42822082956896       -1.62286976979030        0.39199258323807
H           -1.79475296584535       -2.37102238191022        0.89044895013945
H           -2.45871110007826       -0.33662197438403        1.75024121763686
C           -2.14341396987854       -0.88326127040116       -0.46869936147872
H           -1.51906007644313       -0.09552711268531       -0.90786699292836
C           -2.54530472684805       -1.87388860950723       -1.55912262017852
C           -3.36712474111104       -0.19331793438758        0.11336190603371
H           -3.11830935278494       -2.69258793609500       -1.12725218412917
H           -3.16998060179942       -1.36724596822586       -2.28685913950324
H           -1.66424293941353       -2.27977722719816       -2.05193550360598
O           -3.32089800817808        0.01830714138827        1.45092406291523
N           -4.31797576098174        0.13613501755478       -0.63717199843832
H           -5.87276767180470       -0.30532740282792        1.95545577530884
C           -5.45587042838637        0.85730092335361       -0.10206155816846
H           -5.20705011623691        1.34796877616868        0.85095633128464
C           -5.89394542363617        1.88976128455905       -1.14335674260306
C           -6.53094634053188       -0.17724447286455        0.12896503029290
H           -5.04837003695622        2.54964642188088       -1.34593108061168
H           -6.12566155140713        1.33549240957784       -2.05156354123638
C           -7.11171759022506        2.71859355789669       -0.72476016281144
O           -6.60306444119702       -0.65411321315289        1.42705417051588
H           -7.91939573830834        2.03309800108563       -0.44818517439453
C           -6.80629416928689        3.62850422363218        0.46398469560097
C           -7.58190790137870        3.55663954365106       -1.91180096560096
H           -5.95946287453603        4.27435013527879        0.23976576375862
H           -7.66609870433830        4.25662939886793        0.68541914257761
H           -6.57556896679985        3.05543892709583        1.35873574944315
H           -7.83609408111284        2.91566087669997       -2.75164239062156
H           -8.46192484977555        4.13675783663538       -1.64459766980644
H           -6.79873583405489        4.24397788451730       -2.22520773965268
N           -7.21046951105124       -0.60690234295005       -0.82562457787452
H           -8.41984911305434       -0.77540076102043        1.44805362137261
C           -8.19932928695365       -1.65155147048194       -0.79338119955935
H           -8.46208073313668       -1.83363371738085       -1.84182636427283
C           -7.71551045499607       -2.96465853377561       -0.16232594671236
C           -9.49270127821460       -1.21442042766635       -0.08771304380894
H           -7.49925705076730       -2.84256243928044        0.89681483548742
H           -8.48084828964856       -3.72753011873935       -0.28116132445340
H           -6.80850891028281       -3.29022037270681       -0.66704860162513
O           -9.35112021067406       -0.76459152503250        1.15890650703845
O          -10.56735421107961       -1.29354212513609       -0.61041306421449
