42
 energy: -62.486133511063 gnorm: 0.000480092475 xtb: 6.7.1 (edcfbbe)
N           -2.15036409398630       -0.31194534580205       -1.60801036507283
H           -2.13382443853851        0.68499745803570       -1.79722706320313
H           -2.10122613689183       -0.79835736717006       -2.49613625500647
H           -1.37838431636349       -0.55441290059017        0.18000960695276
C           -3.36565334883855       -0.68353121030757       -0.88283803097826
H           -4.28182384363249       -0.26062586953347       -1.31629787831582
C           -3.47240326119738       -2.21104689176521       -0.86699752795809
C           -3.16746236837434       -0.18346322307703        0.55388721124425
H           -2.56566223233597       -2.64548188168270       -0.45039980149942
H           -4.31982546331420       -2.53704525698902       -0.27195567081071
H           -3.60417897858686       -2.58328897425818       -1.88111911042471
O           -1.90965861976403       -0.33004453395203        0.97183931344947
N           -3.99708456935753        0.30633951914103        1.36960326714033
H           -5.31934659450170       -1.58699150275464        2.05823861571608
C           -5.39141953066262        0.58149127180386        1.09634484772573
H           -5.81955763864107        0.80794664148522        2.08508090557974
C           -5.57468827924830        1.81481642610626        0.20175352326901
C           -6.10076933684474       -0.64992612558234        0.58400187332434
H           -4.84312289236578        2.56169814248093        0.51651159739532
H           -5.35339666785910        1.53993832750605       -0.82996285743382
C           -6.98358252212810        2.41767164693072        0.27182514077597
O           -5.93284287725949       -1.76436910088868        1.33076362949769
H           -7.71016160824787        1.60022890776414        0.24288846719667
C           -7.18612807808433        3.21356620250642        1.55914227117966
C           -7.21864351044372        3.32296312542891       -0.93657320602172
H           -6.49046436031193        4.04899925091291        1.60021079699141
H           -8.19824573125135        3.60888091843206        1.60213771089849
H           -7.02862679621488        2.59489382937955        2.43871652938037
H           -7.13211967688189        2.76611952642283       -1.86688895247980
H           -8.21283715047425        3.76098102906037       -0.89424878129248
H           -6.49034893795531        4.13123703180217       -0.94968919172593
N           -6.77975491983969       -0.61572737573642       -0.47376877915239
H           -7.23341782796796        0.24259593938092       -2.02434987349151
C           -7.43133987914104       -1.77933831450477       -1.02654441055067
H           -6.85373116948203       -2.69921964870976       -0.87376965087925
C           -8.83111613071071       -1.96585187452150       -0.43080532589046
C           -7.58136441234176       -1.51961373401252       -2.53259796552403
H           -9.41512954512014       -1.05602652400940       -0.55508705419251
H           -9.33329111030562       -2.78420431897231       -0.93894886560216
H           -8.75184589421573       -2.19390896099977        0.62938034545694
O           -7.45598590906602       -0.23611705649953       -2.85627522761894
O           -7.80536324634923       -2.38376359824944       -3.33207899691110
