42
 energy: -62.486133519870 gnorm: 0.000479006449 xtb: 6.7.1 (edcfbbe)
N           -2.12568725838018       -2.37824161393500       -0.92628317687945
H           -1.19172275327190       -2.75386780740360       -0.81762031476312
H           -2.29085579785799       -2.24772231693550       -1.92054266538676
H           -3.91423932200799       -2.67764800760623       -0.38319662007338
C           -2.26188921681071       -1.09867904842456       -0.23223868983984
H           -1.82552393699854       -1.22002634467460        0.76702376516252
C           -1.59028679361089        0.07694188003833       -0.93774412691449
C           -3.75944254851522       -0.84479703778384       -0.03950465140824
H           -1.99789177272866        0.19073738290230       -1.94027214562303
H           -1.78758427175719        0.98771117928914       -0.38345351563837
H           -0.51558512539337       -0.08094503109885       -1.00672589387841
O           -4.51315362836569       -1.94996716902446       -0.11290305429294
N           -4.11795777192850        0.32409726495274        0.24073760670923
H           -6.72874730030617        0.54458737957507        2.40484578484053
C           -5.44550164260173        0.86356555423002        0.35343625536439
H           -5.39376166592878        1.55476336687779        1.20803020171856
C           -5.71517975311054        1.67543515154595       -0.92771273196637
C           -6.58456243542686       -0.10820598002708        0.56850203659290
H           -4.84454643770202        2.30493847873854       -1.11759127762186
H           -5.80820389225342        0.95350487991059       -1.73954900131941
C           -6.98095969786643        2.53627873633339       -0.86550932012037
O           -7.18781799390955       -0.06738190621133        1.81715617045606
H           -7.81300095372115        1.91535725076574       -0.51528601670710
C           -6.81803804122150        3.72521547506498        0.07960803678294
C           -7.32141855323750        3.03460367092489       -2.26859504846739
H           -5.98864603755310        4.35159368270688       -0.24216494392809
H           -7.72267318938305        4.32892098707831        0.08181575911133
H           -6.62812635370095        3.40567219411648        1.10153537058647
H           -7.49492729830162        2.19634224901822       -2.93830846029979
H           -8.21967410320354        3.64698201520676       -2.24785337986028
H           -6.50495334111617        3.63371217054641       -2.66655503161152
N           -6.91112286982358       -0.89302672557182       -0.34549925142993
H           -8.88115695860544       -0.30322202371235        1.20510642720157
C           -7.92408232356473       -1.91286954809873       -0.30749071432547
H           -7.78918845802714       -2.48770849683393       -1.23092470508815
C           -7.82122839715769       -2.86272174095211        0.89335742944582
C           -9.33998862011173       -1.32229460615365       -0.35799605116512
H           -8.05128090362168       -2.35439857113834        1.82732385692888
H           -8.51297274166158       -3.69096406965553        0.76176726455957
H           -6.80573510495487       -3.24755273497736        0.94933241400135
O           -9.63355547161002       -0.44059002100697        0.59897387972903
O          -10.14332050670377       -1.64015584341343       -1.18809636197086
