42
 energy: -62.486133503164 gnorm: 0.000481147630 xtb: 6.7.1 (edcfbbe)
N           -3.05418016923092       -1.99322075755444        1.67731391546344
H           -2.18660359496919       -2.16819591037858        2.16639477191059
H           -3.42882309948433       -2.88427259746526        1.36987536842213
H           -4.55568913692531       -2.46422561331268       -0.44486794662034
C           -2.86056280914787       -1.05851727727880        0.58187594516041
H           -2.40226584966834       -0.15905458737833        1.00030044928807
C           -1.98873289219222       -1.59013601248233       -0.56858248219475
C           -4.22962987577643       -0.64330076092594        0.07692044977188
H           -2.41666451222340       -2.48965486101714       -1.01307014445549
H           -1.89039656627549       -0.83468964129294       -1.34388864742697
H           -0.99639212678624       -1.83650193275155       -0.19638131555805
O           -4.97136572579512       -1.59811504778143       -0.53532686957376
N           -4.57276049368456        0.54996685880132        0.24239511583328
H           -7.41364031415169        0.78515362079442       -1.99862699087436
C           -5.84995736483854        1.13424525624673       -0.09626517789608
H           -6.09140610781642        1.75785475840257        0.77512772071595
C           -5.64033503971221        2.05422624800427       -1.30950322945343
C           -6.99018128469371        0.13481588236361       -0.24254315160747
H           -4.65560939894634        2.51010702834430       -1.18859039997575
H           -5.58837551097495        1.44880281857512       -2.22136134396506
C           -6.69059694838903        3.16906692539173       -1.44503908650407
O           -7.74723534271753        0.14618738521990       -1.35657519893662
H           -7.68364988915579        2.77862056529013       -1.19187125072512
C           -6.38252822262741        4.31680270497983       -0.48590568986342
C           -6.72421612087979        3.68758626131474       -2.88262643174315
H           -5.42778042389367        4.77317580133608       -0.73762147539652
H           -7.15478634060652        5.07996096642115       -0.54761799089771
H           -6.33311242402723        3.96469720102302        0.54115460752586
H           -7.00018948028050        2.90142118273548       -3.58368303982274
H           -7.44759189417411        4.49371260658168       -2.97817035993826
H           -5.74656656793840        4.07084265591640       -3.16701416677279
N           -7.17195472646551       -0.65016093146023        0.72412077596592
H           -6.28448666872768       -1.41919438090351        2.09285084213683
C           -8.13965148884830       -1.71492660426071        0.78778623623849
H           -9.09196327689203       -1.30687943116066        1.15422357863259
C           -8.39347848583365       -2.49585913861989       -0.50409731816454
C           -7.63374839236913       -2.69121721796526        1.87022504599052
H           -7.44334986572138       -2.74385548712610       -0.97271305225080
H           -8.91929936673788       -3.41386468067474       -0.25442087020688
H           -8.98774540960849       -1.91520025766239       -1.20282666312411
O           -6.53532907457717       -2.28789506400284        2.49122278726232
O           -8.18335899320419       -3.73033424477955        2.11633792373090
