42
 energy: -62.486133506934 gnorm: 0.000481350835 xtb: 6.7.1 (edcfbbe)
N           -0.95161161924796       -0.55322320813341       -0.64572230500125
H           -0.22688306416621       -1.22889265677988       -0.85545734256352
H           -0.66019855331479       -0.04098081495857        0.18247063004324
H           -2.01587048821092        0.75430128472551       -1.53228417621715
C           -2.22883211282435       -1.21799635575694       -0.38898747866762
H           -2.38271309060515       -1.94571328391855       -1.19663331446579
C           -2.31952468418394       -1.93310904740314        0.95537054459259
C           -3.32135087061773       -0.16192497445665       -0.54164495109069
H           -2.13340042549816       -1.23157252992652        1.76538814069834
H           -3.31714594305603       -2.33897328573351        1.07983202986983
H           -1.59021961539502       -2.73901051034545        1.00798591401494
O           -2.96876864462507        0.87082282322916       -1.33667693173344
N           -4.42117767924721       -0.35282050749624        0.02712097496795
H           -5.70262796138380       -0.28516440143195       -2.25817444084872
C           -5.59359252279331        0.48809324637545        0.01041903845307
H           -5.86086182611168        0.61745835046181        1.06446358410466
C           -5.50481895550369        1.86096098059911       -0.67504298874087
C           -6.68414758775342       -0.35146631311034       -0.62159117901927
H           -4.76008989702801        2.46054979397653       -0.14849123363683
H           -5.15246785747202        1.74217060895845       -1.70264560803574
C           -6.84328181861833        2.60985261575134       -0.69914005796608
O           -6.52166272562406       -0.67093196823713       -1.92090209361199
H           -7.58863694609686        1.98370960845261       -1.20312442904855
C           -7.35141822065053        2.92118817331652        0.70622312450858
C           -6.68155768660837        3.90284456313290       -1.49737945351006
H           -6.59553642603712        3.46110188000199        1.27286929059643
H           -8.24383538227105        3.53989890790707        0.64994364852455
H           -7.60844839768862        2.01047700461233        1.23985291577146
H           -6.33996218191125        3.69508610836298       -2.50920853796009
H           -7.62904716234381        4.43238702101220       -1.55956377631335
H           -5.95467103248251        4.55468394447468       -1.01734341975696
N           -7.66481642078566       -0.72889966021311        0.06981662661121
H           -8.70927701633797       -0.56457307289583        1.55105531078089
C           -8.72389301149149       -1.53750343823499       -0.49315403802840
H           -9.00366933842229       -1.20542575240233       -1.50078230342374
C           -8.32486177080991       -3.01619594927318       -0.55155942412388
C           -9.94163995050250       -1.40180462632797        0.43213902948657
H           -8.01035681819741       -3.35393465777578        0.43371352335061
H           -9.17686713768713       -3.60601855791851       -0.87737884456851
H           -7.50252982809190       -3.14874775913398       -1.24995251556911
O           -9.66082237348206       -0.81720346086403        1.59085416090604
O          -11.03309620851378       -1.80552590516813        0.14225740581108
