42
 energy: -62.486133505532 gnorm: 0.000480852175 xtb: 6.7.1 (edcfbbe)
N           -0.80961913437659       -0.19703142667746       -0.67787257989750
H           -0.07151625133442       -0.44075953135753       -1.32713503061740
H           -0.57513206063318       -0.61306444584931        0.21941758389901
H           -1.83260556829445        1.34834407122889       -0.12092198899432
C           -2.10041998998444       -0.70764838390828       -1.13918242473844
H           -2.19398502678246       -0.44385440902487       -2.20050891721598
C           -2.29118734847355       -2.21348837563390       -0.97916548341458
C           -3.18184519133237        0.07529641121744       -0.40960655894262
H           -2.15857989903746       -2.50022137989868        0.06232676980141
H           -3.29780473806228       -2.47986605907933       -1.28247864853623
H           -1.57260135272055       -2.75627638777160       -1.58975057304157
O           -2.79215926794905        1.27593245253485        0.05637769079216
N           -4.33150331385985       -0.41737638754920       -0.29383027332419
H           -5.79238217200401       -1.32840700101704        2.07665140959876
C           -5.41995855396885        0.31073307169911        0.33109035645648
H           -5.12609838723019        0.63551916536673        1.34133378854056
C           -5.81881658254823        1.53943689305271       -0.49848225270736
C           -6.54403478538637       -0.69710551150072        0.42648451868710
H           -4.95989467464870        2.21128054767168       -0.53513297279025
H           -6.02870376412402        1.19453277934790       -1.51183381968474
C           -7.03334268314391        2.29981326510710        0.04196177861007
O           -6.57031991735031       -1.48190620992107        1.52710163916207
H           -7.86636064115744        1.59813906626776        0.14569274636065
C           -6.74946472466792        2.93125661546859        1.40335333520705
C           -7.43463017281885        3.38036624843832       -0.96071489466102
H           -5.86613413913957        3.56455473006424        1.35181681392751
H           -7.59219772982121        3.54347747795889        1.71646976693497
H           -6.58802261262189        2.17352175986875        2.16620413286252
H           -7.67105354082034        2.93961117166892       -1.92599395314848
H           -8.30972011093918        3.92129476901391       -0.60834351132101
H           -6.62326045188442        4.09247615173513       -1.09610105656545
N           -7.35926316151291       -0.82550479387976       -0.52119341542412
H           -7.75049959580345       -0.52072259089440       -2.24260101647533
C           -8.40247244405871       -1.82302251424024       -0.51823020746995
H           -8.03761820293339       -2.79627844512896       -0.16618892467501
C           -9.59179989595336       -1.39777600766209        0.34975904749670
C           -8.88638617934274       -1.96818954242649       -1.97023754415180
H           -9.94179271803714       -0.41345702128832        0.04448355410083
H          -10.39868328320619       -2.11463158951267        0.22700221429933
H           -9.29481700730940       -1.36158852206190        1.39488446811544
O           -8.37336336385292       -1.05892681456500       -2.78890209300007
O           -9.66614061666925       -2.81050913625814       -2.31906837490665
