42
 energy: -62.486133505619 gnorm: 0.000480880721 xtb: 6.7.1 (edcfbbe)
N           -1.26894901162625       -0.64368391154004       -1.57147085137015
H           -0.66011666317256       -1.35132448378266       -1.96476139886889
H           -0.73318738856066       -0.13044259577186       -0.87625123885955
H           -2.53248972328142        0.68155492466846       -2.15763207176395
C           -2.44060912721337       -1.25375034078142       -0.94298467058916
H           -2.85223362462470       -1.97876797611263       -1.65680879590012
C           -2.16092791895549       -1.95903176199348        0.38121418545878
C           -3.50118212104129       -0.16543462271676       -0.79361395833690
H           -1.72672602377406       -1.26083383558594        1.09441062825188
H           -3.09492732307108       -2.32913946834842        0.78883954402228
H           -1.47324676146246       -2.78967138652673        0.23379240280483
O           -3.35568010808260        0.85533652938255       -1.65757924368833
N           -4.39259455097620       -0.32801199749434        0.07104928458858
H           -7.46394682934032        0.50534813591723        1.84001547840164
C           -5.52359442566229        0.51253850965316        0.35522520409629
H           -5.40245712365552        0.81250371577203        1.40755261814793
C           -5.72038455254163        1.76301404846390       -0.52503464459214
C           -6.75031595112128       -0.36775475848858        0.24680419208280
H           -4.80989209186766        2.36172532298576       -0.48003796470144
H           -5.84448262373669        1.41767888624730       -1.55206092517578
C           -6.91555709133839        2.64318619931383       -0.13992676936085
O           -7.73577452331106       -0.16219757588845        1.19886238838461
H           -7.82010205635065        2.02813797857412       -0.07963231900425
C           -6.69762587650498        3.35129152117248        1.19755851753799
C           -7.14417421041186        3.68479739433066       -1.23440388096839
H           -5.83275116895598        4.00848060071866        1.13441536689409
H           -7.56645593543664        3.95534273613360        1.45028879590928
H           -6.52701018230186        2.65216777258744        2.01461591235178
H           -7.35886853518747        3.19972346618980       -2.18308395364139
H           -7.98465298165778        4.32670780986964       -0.98011586512705
H           -6.26000520330617        4.30641908739837       -1.35764121933047
N           -6.82484980176918       -1.20545061660037       -0.67518407658120
H           -9.14755137021395       -0.33883325769616        0.08232178918362
C           -7.89782952238397       -2.12942424071811       -0.93523649484889
H           -7.52578926573358       -2.78758239281367       -1.72897435261491
C           -8.30595013557553       -2.98246812569047        0.27354156037884
C           -9.14671275406960       -1.43217614452035       -1.49674855387008
H           -8.74031879555973       -2.37472880611492        1.06429381908377
H           -9.03250139768995       -3.72874897976769       -0.03827462840308
H           -7.42653911670735       -3.48606114872921        0.66844623100266
O           -9.66263015100055       -0.46592143950368       -0.73706499338514
O           -9.64459723905545       -1.74654038499280       -2.53978984127291
