42
 energy: -62.486123804433 gnorm: 0.000708741974 xtb: 6.7.1 (edcfbbe)
N           -1.98496594964514       -1.27575953941274        1.43769047203091
H           -1.04027033609260       -1.63250881567002        1.36048354568666
H           -2.54133979667388       -1.98465819575673        1.90858056078092
H           -2.97840274790863        0.26201088632895        2.00068464464785
C           -2.55156424091033       -1.00240781210978        0.11776857835445
H           -1.80187351841184       -0.43627116206273       -0.44988957987293
C           -2.95234796177974       -2.24592928293407       -0.67297446889633
C           -3.74370499258300       -0.07887846730903        0.32531238775687
H           -3.66960555004365       -2.83308048021938       -0.10308077710240
H           -3.42172442510814       -1.94413415649724       -1.60278420942092
H           -2.08030165256699       -2.86036125846212       -0.88794488416846
O           -3.74829386312475        0.58735589247810        1.49144188587569
N           -4.61976182734192        0.01070879958559       -0.57195861692847
H           -7.29706954142543        0.64886464213438       -2.34811165309806
C           -5.77271871864767        0.87602486381919       -0.39811467728159
H           -5.82142356092638        1.26115928038082        0.62882163702925
C           -5.68326810237508        2.04200604179535       -1.38632250940154
C           -6.96136201169128       -0.04616831160849       -0.59712496974079
H           -4.73164615109456        2.54671755281965       -1.20490784418040
H           -5.62854449234162        1.64708585979672       -2.40651040639345
C           -6.82243078920862        3.06419148633927       -1.25622057006502
O           -7.65860408645278       -0.01367383663046       -1.74550942593892
H           -7.78197164262846        2.53999393944200       -1.17575317551090
C           -6.64953700463906        3.92229263574414       -0.00482334864688
C           -6.86015351684360        3.95668192854908       -2.49670192920335
H           -5.71538225109443        4.47783337167923       -0.05271278156991
H           -7.46764130511801        4.63380311159495        0.07956144854645
H           -6.64007488432364        3.30990629038204        0.89276616186967
H           -7.03487718140370        3.37344913680848       -3.39904920208168
H           -7.65528564982129        4.69312403494699       -2.41010276028581
H           -5.91579942861205        4.48508457008179       -2.60892453370139
N           -7.19344967133767       -0.87495111291187        0.32304172808069
H           -6.87168617914885       -1.42989128609427        1.98511360037709
C           -8.22447574651597       -1.88239030715210        0.23717578550081
H           -9.19535370947920       -1.44662961802998       -0.03052034437763
C           -7.88099323460152       -2.98330138441027       -0.77240916513021
C           -8.33733918065892       -2.51953817072287        1.63216832549534
H           -6.88744451086588       -3.37603591186384       -0.56559488427578
H           -8.60803098323894       -3.78589885813982       -0.68579954320658
H           -7.89892081050102       -2.58324187171630       -1.78235725472675
O           -7.40027599685347       -2.10622754616697        2.47659433272716
O           -9.17627404329867       -3.32838275298227        1.91793351156709
