42
 energy: -62.486133514600 gnorm: 0.000479176580 xtb: 6.7.1 (edcfbbe)
N           -1.53748737386042       -1.65959370169782        0.43831630293982
H           -0.97411095851691       -0.94818195386886        0.89225802808111
H           -0.91065957401183       -2.36811165413596        0.07588927683200
H           -3.22032983260843       -1.56815735721955        1.42673188125818
C           -2.33293410390567       -1.07634392205538       -0.64220224123639
H           -1.79484394210723       -0.32812827022647       -1.23968638209587
C           -2.84490757684718       -2.18089041538034       -1.56767044841911
C           -3.53725034190851       -0.40909968390608       -0.01167620323947
H           -3.36307972757700       -2.94187451465103       -0.98853950564801
H           -3.53828708309287       -1.75425225275818       -2.28538675029726
H           -2.01743648271602       -2.64568950922454       -2.09946413902720
O           -3.90225973581230       -0.90843512578478        1.18692581759498
N           -4.13924869034271        0.50692166136510       -0.62517650093250
H           -6.63934034108145        0.62321537320659        1.98137216768444
C           -5.34242738769956        1.06984044041058       -0.04947988093401
H           -5.10257392758299        1.52922108280727        0.92203938700848
C           -5.87160699450210        2.12540153709898       -1.02981483797320
C           -6.38347288359492       -0.00708596286253        0.15502326167096
H           -5.07512781533001        2.85047730349780       -1.20222114584796
H           -6.06110528527956        1.60315204229467       -1.96768677316800
C           -7.14434096029278        2.84383922426821       -0.57188384466117
O           -7.04720237996911        0.00109350865331        1.36750207513960
H           -7.88871638734411        2.09659341589275       -0.27401713790839
C           -6.87802222327934        3.77711160753952        0.60862152118458
C           -7.72328553955767        3.64195307271434       -1.73841922390440
H           -6.13752996078679        4.52554263974883        0.33507063667926
H           -7.79247518132298        4.29028759772848        0.89693189358137
H           -6.50990688680539        3.23758947576773        1.47846420427553
H           -7.96636664739550        2.98212522835627       -2.56710894939078
H           -8.63062824942541        4.15867230864879       -1.43455708492535
H           -7.00471426205732        4.38155716847891       -2.08500427425423
N           -6.60220931002126       -0.82383920186601       -0.76441337459557
H           -8.68146840272456       -0.39953144506512        0.71368741721993
C           -7.52310335077615       -1.92996312897415       -0.74865963595749
H           -7.31073012501498       -2.49491504313832       -1.66400378998387
C           -7.37142623212827       -2.86060125661592        0.46264431134133
C           -8.98929223486606       -1.48110825030730       -0.84474944250097
H           -7.63937415674161       -2.35737346930409        1.38898195600148
H           -8.01076847121450       -3.73045967330256        0.33428248141864
H           -6.33663107847042       -3.18760018190083        0.53629487248300
O           -9.39767999933794       -0.62320400255706        0.08986229750377
O           -9.73182915745561       -1.89218037508307       -1.69014298665345
