42
 energy: -62.486133505757 gnorm: 0.000480585179 xtb: 6.7.1 (edcfbbe)
N           -0.76027225654859       -0.22680063358205       -0.62412809181379
H            0.00906370993046       -0.76929951246110       -0.99745346577252
H           -0.51763982402400        0.03311603811820        0.32823716314681
H           -1.86952266117955        1.24141078861574       -1.08212354817783
C           -1.99967405431483       -1.00174786127899       -0.62480667063244
H           -2.07977782032713       -1.48201821327765       -1.60923089195956
C           -2.08374589673795       -2.06802423706974        0.46470953392090
C           -3.15547130286317       -0.00427316144061       -0.52535402726528
H           -1.97473486101948       -1.60814521439720        1.44478264669632
H           -3.05165790487400       -2.55580443989785        0.42488426549637
H           -1.29925546273970       -2.81030383742942        0.33172922942976
O           -2.83075330672882        1.24585476523150       -0.88857127861430
N           -4.26815268801171       -0.42946407135871       -0.12813157123344
H           -5.25777113353299       -1.27554895736083       -1.77062295321696
C           -5.51383187472954        0.28792921603174       -0.00596642687343
H           -5.71281876649426        0.38140974669444        1.06636237281007
C           -5.59645352337041        1.67670229408999       -0.66844154081334
C           -6.58007268260549       -0.61423902652515       -0.59728636749892
H           -4.80301969106329        2.30059763468373       -0.25627605766601
H           -5.40389049497037        1.56002607402084       -1.73862821016015
C           -6.93848821999704        2.39103545653741       -0.47734315657283
O           -6.21902564033653       -1.34627327019913       -1.66565441242180
H           -7.74128622210149        1.74902062683295       -0.85200364177744
C           -7.21164986270616        2.70467758328971        0.99148209497318
C           -6.93768894943056        3.68427897429619       -1.29171282899891
H           -6.41739714780015        3.32680233352279        1.39973572183284
H           -8.15210259420782        3.24103367128689        1.08926420395127
H           -7.28072903438094        1.79587335236321        1.58283475450259
H           -6.77674298221896        3.47747250421415       -2.34733327881982
H           -7.88985447945841        4.19816505570920       -1.18610216959199
H           -6.14790021128316        4.34934452363642       -0.94814555100626
N           -7.72865064760410       -0.64025709362581       -0.08171821651037
H           -9.00927716652767        0.24566801794151        0.86725531180522
C           -8.79320669965447       -1.45018071045431       -0.63126699919022
H           -8.77230083034844       -1.47442141674936       -1.72815114313632
C           -8.72433378300715       -2.88686151234029       -0.10238473611991
C          -10.12224092551663       -0.82840057262961       -0.17722770791477
H           -8.70149049330099       -2.87998674582301        0.98538145314009
H           -9.59973470787492       -3.43548137935783       -0.43813787984685
H           -7.82587397768413       -3.37434925489540       -0.47243756887470
O           -9.97830657160473        0.13164259882922        0.72828553986626
O          -11.18845761626756       -1.19220594690871       -0.58936889090682
