42
 energy: -62.486124300136 gnorm: 0.000973603383 xtb: 6.7.1 (edcfbbe)
N           -1.51541353679690       -0.27770130503078        0.60592886047312
H           -0.72810435632287       -0.91473055643972        0.57127124595827
H           -1.58983886529909        0.06091655549678        1.56162367398062
H           -2.26602803482816        1.16521757252237       -0.43200405399131
C           -2.75401827349209       -0.96453499778421        0.23238174518035
H           -2.55724086658724       -1.47775205265193       -0.71903945248634
C           -3.25747777418880       -1.97809164894166        1.25445062714087
C           -3.78448942291208        0.11755033217782       -0.06886209283401
H           -3.53338135800943       -1.47726208630301        2.17867943012873
H           -4.13344786252279       -2.48489766519529        0.86756959000454
H           -2.48408563474881       -2.71454154637778        1.46481976677959
O           -3.23452394078409        1.26382520711883       -0.53067480183493
N           -4.99651810498376       -0.12234552581433        0.13078993385984
H           -8.35339902716374        1.29780572522862       -0.97790207871257
C           -6.11548977793574        0.74187101064089       -0.13545880904237
H           -6.26159261730657        1.36407652249615        0.76135155549995
C           -6.01741085595904        1.66075210751428       -1.37707056103072
C           -7.33587470806634       -0.15870617647535       -0.23427811937903
H           -4.97486566240713        1.72607225928232       -1.68075480780969
H           -6.55775456161702        1.19795525062472       -2.20853174199392
C           -6.53032157615627        3.08997477376479       -1.14084769912876
O           -8.47869421936253        0.37503065690148       -0.72264311707146
H           -7.48098114563998        3.06641155275046       -0.58864399593347
C           -5.52751850762015        3.88957536573008       -0.31227599942511
C           -6.77378716835595        3.78332836276220       -2.48033921563083
H           -4.58380489143393        3.97114570354334       -0.84576646053210
H           -5.90544165017793        4.89069499741393       -0.11716066739496
H           -5.33296115064449        3.40538414302095        0.64160574994041
H           -7.51424794876785        3.24771160477036       -3.07184817451876
H           -7.13162170228398        4.79847481774059       -2.32458172319493
H           -5.84919567797249        3.83004995206176       -3.05107127588025
N           -7.25970312762045       -1.34163712367694        0.17684003618459
H           -6.34872860588117       -2.49005746995468        1.14708118780198
C           -8.36012214095356       -2.27138774637463        0.16012217240424
H           -9.27978675261804       -1.82693223764039        0.56283202209828
C           -8.64539381597698       -2.80631456287784       -1.24662016286211
C           -7.94312273312636       -3.44658237359176        1.06362256805401
H           -7.72726583627608       -3.18774950856403       -1.68893425825267
H           -9.37178720782141       -3.61162469198291       -1.18204959066411
H           -9.03957461944889       -2.01171566559025       -1.87512649253488
O           -6.69725941043018       -3.34930317964254        1.50422447599543
O           -8.67391613309566       -4.36198195051675        1.32622541623809
