42
 energy: -62.486143125506 gnorm: 0.000732934688 xtb: 6.7.1 (edcfbbe)
N           -0.92899203806851       -0.40513694382958       -0.77632168851503
H           -0.24548196072792       -0.92279382050714       -1.31476433283552
H           -0.60900461929120       -0.38543031950223        0.18800040796757
H           -1.91077751977232        1.23165521753296       -0.87401389985038
C           -2.24511943409142       -1.03890011947255       -0.85064595203373
H           -2.42841895452022       -1.29033867658028       -1.90283095281550
C           -2.39575330630176       -2.29835966237307       -0.00150058433947
C           -3.28357997611141        0.01606205229731       -0.47936021535902
H           -2.17723645753356       -2.07587092138398        1.04133758408239
H           -3.41833426012538       -2.65265649664427       -0.07057650334318
H           -1.71753018997591       -3.07605837215840       -0.34701108819242
O           -2.85280740267607        1.28370257428135       -0.61008961447462
N           -4.41679487674187       -0.36580035355868       -0.10107019054979
H           -6.60031494543011       -0.57959691385868        2.13585673430458
C           -5.52671761732883        0.50111209345316        0.23107620810446
H           -5.37099169464615        0.87722010570165        1.25356793189140
C           -5.74974383517845        1.68431474392008       -0.72162271104629
C           -6.74075288546039       -0.40511879503847        0.20238323944283
H           -4.85076935785471        2.29925010306498       -0.74194853378144
H           -5.91059857121845        1.26197504372162       -1.71393079129038
C           -6.95179369486016        2.55611339255651       -0.34224150238353
O           -7.20467303780103       -0.84019246486730        1.43085313969142
H           -7.82786235950022        1.91317772459348       -0.20406615346770
C           -6.70500789745441        3.33907279868584        0.94628720733266
C           -7.24995516181727        3.52421385872741       -1.48529967740285
H           -5.81182995591873        3.95320377021760        0.84973052561763
H           -7.54915878693838        3.99213944369889        1.15581701137087
H           -6.57709863474020        2.67872395596071        1.80108475118044
H           -7.47310925357443        2.97696466651009       -2.39737250607805
H           -8.10638192146206        4.14906590732352       -1.24303487083305
H           -6.39311871255084        4.16932830638688       -1.66869711013180
N           -7.22909137692286       -0.74235826036989       -0.89582129015047
H           -8.96725518678911       -0.71707933207106        1.01262478744289
C           -8.33196021562734       -1.63798781824021       -1.12597651807645
H           -8.35489607686758       -1.79541625731369       -2.21058310353017
C           -8.20710906664264       -2.99760181273080       -0.42472728188839
C           -9.68242852798298       -1.01034966003474       -0.74792611406859
H           -8.25443294913384       -2.89550992885235        0.65715624130119
H           -9.01219119669040       -3.64983744347060       -0.75407307213374
H           -7.25332333953157       -3.44893787434268       -0.68826114355567
O           -9.78781804292228       -0.57049343085656        0.50610129177495
O          -10.59597596632658       -0.93749577924946       -1.51917449639655
