42
 energy: -62.486133510717 gnorm: 0.000480267703 xtb: 6.7.1 (edcfbbe)
N           -2.18859225414663       -0.37699241424230       -1.66282999615711
H           -2.24664505721243        0.60962855739590       -1.89292909163487
H           -2.07448444677082       -0.89036265346016       -2.52929664069622
H           -1.50660630072949       -0.56024873939038        0.20668140530383
C           -3.40087899200388       -0.82064139981999       -0.96709657272641
H           -4.33246175938665       -0.52559125863625       -1.46315407308974
C           -3.35373005417014       -2.34449974654224       -0.83991876018440
C           -3.32932182356815       -0.22315924660407        0.43852626422169
H           -2.40275744032751       -2.65573063404051       -0.41208311038736
H           -4.15943944294858       -2.67961868044344       -0.19623100098758
H           -3.46562383867836       -2.80546604347341       -1.81869179710885
O           -2.09137424773598       -0.30377850277909        0.94688845169957
N           -4.19190386322441        0.32641901539416        1.17003124393460
H           -7.92298482799929        0.66933386321837        1.29608018079125
C           -5.55586718247577        0.68040972826166        0.94248681769847
H           -5.92618672040857        0.95525576962654        1.94198222495085
C           -5.56475391171779        1.94430181007780        0.03797128532313
C           -6.52289930509631       -0.33664893013673        0.37976140874528
H           -4.75291063432201        2.58118822565145        0.39583167765159
H           -5.31247975508674        1.62181936027479       -0.97474279534837
C           -6.85398825043673        2.77258838941251       -0.00992711813773
O           -7.84685654347753       -0.08475746707798        0.69843419941574
H           -7.68844506157482        2.14427440798387       -0.34057949524595
C           -7.18822221904039        3.39660073219194        1.34478349110242
C           -6.68584340827691        3.88151329111093       -1.04958480198295
H           -6.37846055134703        4.04944406900899        1.66251649774825
H           -8.09661140244007        3.99037666094369        1.27007034705222
H           -7.33857165313918        2.65180857129097        2.12429731038118
H           -6.49164340557219        3.46074555277059       -2.03323212830612
H           -7.58845784183134        4.48489641779583       -1.10945708793339
H           -5.85540937466869        4.53089104025919       -0.78155441971435
N           -6.15423598265710       -1.32415767853789       -0.28978222942002
H           -8.55193246042218       -0.50129467493243       -0.93935588438915
C           -6.99640690355217       -2.33619831957137       -0.88026055938604
H           -6.30870332173311       -3.10536309558609       -1.24991430209813
C           -8.00587096115443       -2.98726848066276        0.07231924360173
C           -7.72338462349432       -1.77633391343187       -2.11277373701918
H           -8.76680665572358       -2.28415188889497        0.40295304559126
H           -8.49026111989166       -3.81917639185200       -0.43296484208679
H           -7.48145843868095       -3.36344732942695        0.94798510924652
O           -8.54637749197396       -0.75375431354867       -1.88203085355045
O           -7.56634174218603       -2.22476060114251       -3.21221240950827
