42
 energy: -62.486133512112 gnorm: 0.000479574764 xtb: 6.7.1 (edcfbbe)
N           -2.10717000235228       -0.83128826202604       -1.76394144370885
H           -2.14656971965008        0.04524133665752       -2.27446215978139
H           -2.00840962154999       -1.57931948470753       -2.44130389098320
H           -1.39489675299976       -0.39291465082155       -0.03639544432063
C           -3.32771541062632       -1.02156666742931       -0.97175463203753
H           -4.24958721744092       -0.81656382589810       -1.52562201888664
C           -3.35147962411400       -2.45877285602615       -0.44953740245322
C           -3.21694916605219       -0.08346566385231        0.23162748242586
H           -2.44238733656473       -2.66801403401464        0.11069561812255
H           -4.20930139667673       -2.59558154037655        0.19993868871033
H           -3.42150508316968       -3.15946675250909       -1.27883675820753
O           -1.94687198834843        0.04081226232396        0.64760208929200
N           -4.06597278578389        0.58312685844004        0.87242014177965
H           -7.77138848295425        0.66377586747868        1.40721526933433
C           -5.46829718156333        0.80633301601054        0.78968141195864
H           -5.75727707790555        1.05457566280663        1.82263269526340
C           -5.64006212367412        2.07175981064948       -0.09981319033754
C           -6.44114479196463       -0.24752230341624        0.30336471019177
H           -4.83483244458487        2.75294114036405        0.18246373875673
H           -5.46607393954283        1.76141690020996       -1.13282187605606
C           -6.97336162329828        2.82322786748886       -0.01698150160128
O           -7.72660363628544       -0.07828638469990        0.79133857742930
H           -7.80026319352748        2.14610351958415       -0.25799702154065
C           -7.20036756422302        3.43703479739123        1.36439305610271
C           -6.97814426485938        3.93183818923522       -1.07018196745080
H           -6.40099396134974        4.13762997029399        1.59449678089447
H           -8.14463380697836        3.97682066155078        1.38499552895762
H           -7.22446949933052        2.69040932727737        2.15636326872835
H           -6.86512279327225        3.51472148405384       -2.06783563966217
H           -7.91463669838929        4.48341746568681       -1.03544311356256
H           -6.16179576468437        4.62825346204483       -0.89255062013876
N           -6.11576228858215       -1.19330926292365       -0.44369875945567
H           -8.61318823818650       -0.49664520059358       -0.74778102251238
C           -6.96669405847531       -2.23855668302039       -0.95719627205373
H           -6.28702281816028       -2.94840703238624       -1.44288026944732
C           -7.79273951516577       -2.98269337235044        0.09877839533601
C           -7.89619419931283       -1.70373101644978       -2.05760164291896
H           -8.53530956951338       -2.33705472906078        0.56197985740488
H           -8.29888535961896       -3.82344035342992       -0.36914399928247
H           -7.13053101683878       -3.35837248001363        0.87596088190221
O           -8.73271946336446       -0.73551861676202       -1.68661732818344
O           -7.87885914950842       -2.13081590355143       -3.17651533397105
