42
 energy: -62.486133506743 gnorm: 0.000480937720 xtb: 6.7.1 (edcfbbe)
N           -1.04480121877339       -1.61511858928158        0.39082566753648
H           -0.96058083217571       -1.57979360621661        1.40098005594330
H           -0.11119514293977       -1.65243699535226       -0.00059240418301
H           -2.64039560869181       -2.54121205303215        0.09214262392224
C           -1.77826052204374       -0.45461198280850       -0.11356341993174
H           -1.56771811680345        0.47416663504072        0.43205513057565
C           -1.46896790540714       -0.24492573701832       -1.59561364628968
C           -3.26679474224560       -0.76307209827047        0.02367737728962
H           -1.67096695328513       -1.15660056575893       -2.15425614511514
H           -2.09133576177355        0.55450769654207       -1.98582882269331
H           -0.42366196698413        0.02434525653962       -1.73136727239641
O           -3.52031163970541       -2.10218316419749        0.05424611210153
N           -4.06292827396537        0.19159067209383        0.05993594117569
H           -5.17450674327070       -2.11378516777232       -0.24461791936007
C           -5.47993594936964        0.39915009281667        0.12172847866650
H           -5.65050338541525        0.90835119190737        1.07694881641912
C           -5.71660756350976        1.42513178252827       -1.02161836221612
C           -6.49694172283593       -0.73135077822316        0.02485168908670
H           -4.89134589912508        2.13659006051263       -0.95185810720249
H           -5.61347290306721        0.89134042334234       -1.96970252543960
C           -7.03521298220232        2.19954145566803       -1.03135204328609
O           -6.14040084240421       -1.98726326679134       -0.25578837846110
H           -7.85401370560347        1.49804402807501       -1.20229579066706
C           -7.27708370032314        2.93977081451653        0.28048785035545
C           -7.01278132404709        3.19398929200567       -2.19241879688381
H           -6.45193198344222        3.61734476132565        0.49091996799863
H           -8.19238481193310        3.52273321124599        0.21617452906543
H           -7.37622468239735        2.24532531743338        1.11028883914897
H           -6.84516670841542        2.68229103663447       -3.13728409147094
H           -7.96156608530200        3.72069528586215       -2.25398717984851
H           -6.22089058977316        3.92738359403123       -2.05345526242528
N           -7.71368932693555       -0.40100552103212        0.14680832987139
H           -9.06300061971443        0.82434672932391        0.44316282222317
C           -8.76533071524199       -1.38682089733042        0.01730648567491
H           -8.62767478698193       -2.01546610507150       -0.87131939596183
C           -8.86031579853504       -2.29374615652646        1.25167782921830
C          -10.09396036370578       -0.63146719288903       -0.10450583800053
H           -8.96064588906463       -1.68786881192811        2.15060749943627
H           -9.72965962966891       -2.93844040968193        1.15766664883818
H           -7.96505747621298       -2.90462970132556        1.33265390137992
O          -10.01190878338462        0.64600148837744        0.25096300811946
O          -11.11605757915310       -1.15286767991257       -0.45574936440649
