42
 energy: -62.486134065938 gnorm: 0.000281487517 xtb: 6.7.1 (edcfbbe)
N           -1.13572130001588       -0.75316615887261       -0.82173783339413
H           -0.44283286149756       -1.48055228966735       -0.94920299775404
H           -0.74360284038006       -0.06619220884698       -0.18357609091758
H           -2.29789631131785        0.31880813172076       -1.87764441447222
C           -2.37190764759609       -1.29914180176276       -0.26099524220742
H           -2.61911033921505       -2.20110124485415       -0.83650067872514
C           -2.30260358883012       -1.65170563422532        1.22179246976468
C           -3.47725642494204       -0.28763403969199       -0.54753067104681
H           -2.02361078284292       -0.77503967635975        1.80277198453399
H           -3.27833207217592       -1.98552748785067        1.55625960113578
H           -1.57086903337570       -2.43870649951158        1.39233123213197
O           -3.22453761685820        0.50217781324018       -1.61652619294812
N           -4.51243756882019       -0.30736184187330        0.15814632659626
H           -5.79672395972089       -0.07217778627236       -2.27144122416638
C           -5.66291493804804        0.55966504141687        0.04319897736712
H           -5.98184732283940        0.71797380894868        1.07919130243149
C           -5.49606535065464        1.91847074956501       -0.65010125442037
C           -6.73120931354223       -0.28539073267490       -0.61762026993144
H           -4.74881644715399        2.49089735276214       -0.09591524888412
H           -5.11121449625661        1.78951443156971       -1.66415542323243
C           -6.80608759507043        2.71436747993150       -0.72010311258441
O           -6.58598546778071       -0.51972174427447       -1.93728892332236
H           -7.55775877410476        2.10941246287589       -1.24066874869243
C           -7.34581319661043        3.05865350692486        0.66593338543680
C           -6.57542278794815        3.99308096721648       -1.52463239794762
H           -6.58429915705219        3.56372282343628        1.25584189484715
H           -8.20337153536172        3.72081789911490        0.57659584371762
H           -7.66639382710648        2.16640271048915        1.19594089756690
H           -6.21109217614788        3.76456953355399       -2.52403796723336
H           -7.50159303215159        4.55450547300629       -1.62002367509726
H           -5.84153243861921        4.62427122657906       -1.02791874510693
N           -7.65209310701111       -0.78205640827645        0.08027532708234
H           -8.62818473123427       -0.80812617729609        1.61302536412475
C           -8.66663289088868       -1.63801659539940       -0.49407139163628
H           -9.02949508163532       -1.25505862967805       -1.45616343533035
C           -8.14944655040987       -3.06699324748405       -0.69343947048951
C           -9.83870383276478       -1.68127616140420        0.49731448559919
H           -7.73515853315977       -3.44393647882551        0.23945911710576
H           -8.97133852196273       -3.70577309708373       -1.00467125090673
H           -7.37358492532222       -3.07676708315465       -1.45465566803138
O           -9.55013430423013       -1.15039031817424        1.67922696060336
O          -10.90255857166178       -2.16752385056775        0.23225227495138
