42
 energy: -62.486133513970 gnorm: 0.000479776111 xtb: 6.7.1 (edcfbbe)
N           -1.15182000401693       -0.58709345751090        0.61635754258797
H           -0.26121117802499       -0.95962259487942        0.31044919518701
H           -1.35251479144418       -0.98739395106146        1.52895497466580
H           -2.09364916663222        1.07709238851562        0.80275903332884
C           -2.21699882011968       -0.94032284583454       -0.32153677094792
H           -1.84435724467087       -0.72928899059370       -1.33240355226696
C           -2.67708907637351       -2.39432712407831       -0.24648498064936
C           -3.37305499947266        0.01827151060048       -0.07069725219323
H           -3.01316138696219       -2.62721418929658        0.76180968516876
H           -3.51030460327114       -2.54434513995509       -0.92420098672478
H           -1.86451608423751       -3.06658498955980       -0.51483129346928
O           -3.04041037764171        1.15421935591698        0.56568358304942
N           -4.52774769747471       -0.29065104041018       -0.45866068518624
H           -6.38693655935785        0.02646469030415       -2.49990587144994
C           -5.65617510823671        0.60133723825859       -0.26610646878052
H           -5.75249860582403        0.84219796666543        0.79921249846719
C           -5.52689035206780        1.90528345582730       -1.06844055333455
C           -6.86208041542889       -0.21688614547668       -0.67092212957005
H           -4.71865507299086        2.48799946394426       -0.62367338613879
H           -5.22498161871524        1.67320660102738       -2.09621243808529
C           -6.80797181123629        2.74810598124412       -1.08835192281090
O           -7.08422364214839       -0.39901230846607       -1.98587891740826
H           -7.61608488045113        2.16660528433357       -1.54685374590604
C           -7.24361945990925        3.14157290493749        0.32105659213133
C           -6.57566971271393        3.99794395976477       -1.93647240505885
H           -6.42803705683182        3.63247149412369        0.84771834144311
H           -8.08454195239871        3.82951552524117        0.27303730915330
H           -7.55443778321968        2.26969114638966        0.89064661615045
H           -6.27501026102846        3.73279243905072       -2.94814024120442
H           -7.48508853935360        4.59073738816130       -1.99613277571161
H           -5.79377841266472        4.61294313666511       -1.49602594372726
N           -7.54415889705762       -0.77743119509858        0.22697655954496
H           -8.06043895116023       -0.89778368994813        1.95646199241137
C           -8.65607642634788       -1.64662165767739       -0.09020163908706
H           -9.28035129880533       -1.23914198717012       -0.89502579491121
C           -8.17431639948348       -3.04429993518880       -0.49526848754450
C           -9.50638185796284       -1.77825712771880        1.18147117789310
H           -7.51861113067658       -3.44637709106832        0.27432697382277
H           -9.03215123441412       -3.70021475378265       -0.61374731526820
H           -7.62649651190323       -2.98841907624102       -1.43228251865645
O           -8.91601299173131       -1.28183748067988        2.26261837320013
O          -10.58767887689057       -2.29735099892094        1.19785263520437
