42
 energy: -62.486123795738 gnorm: 0.000708597177 xtb: 6.7.1 (edcfbbe)
N           -1.63739497387336       -0.89043447137427       -0.14492554958221
H           -1.03184606067409       -1.69391566059149       -0.03165118959252
H           -1.19711908295913       -0.10559612842259        0.32753935842149
H           -2.59494806495943       -0.02345214871749       -1.51679435369844
C           -2.95691908163095       -1.14235684298188        0.43604197818337
H           -3.26552465856941       -2.14859338920985        0.12720011541966
C           -3.00884978530153       -1.05007991528196        1.95823501659878
C           -3.94042713728720       -0.17434421799978       -0.22199345089143
H           -2.67493777765216       -0.06729584302794        2.28590860476472
H           -4.02996470719286       -1.19609187306709        2.29197175888330
H           -2.37130126490865       -1.80892043315824        2.40691768699812
O           -3.50226206322021        0.32934350047075       -1.39410784032719
N           -5.03571419285554        0.02177772186284        0.35003429185882
H           -8.40106815869795        1.23829703210789       -0.97019504010704
C           -6.16132434366303        0.81077006451139       -0.06320538652254
H           -6.39876543126027        1.42933081480689        0.81715454808949
C           -6.03826210620356        1.73130204091447       -1.29870671786388
C           -7.32258369424923       -0.15945476319572       -0.20702652852183
H           -4.98378172790567        1.86197924108535       -1.53185391635526
H           -6.49048256602127        1.23909942456909       -2.16465331919109
C           -6.65659681008756        3.12365339514114       -1.09519166077271
O           -8.48178559334997        0.30965592390353       -0.71764329512446
H           -7.62575432886677        3.03967110518294       -0.58293187882925
C           -5.74661298526022        3.99199927955281       -0.22852218796037
C           -6.88870395089469        3.79517849098557       -2.44767777318147
H           -4.79849270828389        4.16085830998940       -0.73413417522362
H           -6.21019129280783        4.95696273181919       -0.03562121462128
H           -5.54264920217162        3.51396836386232        0.72686459428976
H           -7.57889794760409        3.21753880245600       -3.05966746356661
H           -7.30408155449477        4.79126068235770       -2.31277075365554
H           -5.94870070436944        3.88582691105882       -2.98700815237741
N           -7.16820250619675       -1.34385138303710        0.17835857636115
H           -6.13703131746792       -2.46203221079432        1.07512371717706
C           -8.18732042115920       -2.36011751922038        0.12714830064520
H           -9.12442236788702       -2.01848574610413        0.58580387879050
C           -8.48005278332216       -2.83186058976486       -1.30044164400802
C           -7.64595812655360       -3.54828662767350        0.94460681450842
H           -7.55149285614552       -3.10990447825967       -1.79504415327209
H           -9.13583941612297       -3.69709273910527       -1.26226527979473
H           -8.96002873369010       -2.03725540998806       -1.86580674310901
O           -6.40542854954489       -3.36798518092490        1.37700586289676
O           -8.28447022033981       -4.54309180578087        1.15285915757201
