42
 energy: -62.486133064778 gnorm: 0.000566061087 xtb: 6.7.1 (edcfbbe)
N           -0.78630665305613       -0.15478642185770       -0.96337342157022
H           -0.04588826934229       -0.69227054801524       -1.39691989465996
H           -0.44794167695566        0.16068970544980       -0.05844539742287
H           -1.98475713586634        1.24648434697824       -1.39717602650527
C           -1.99303819574070       -0.96069081877564       -0.78984691361270
H           -2.16275241009420       -1.49654135586924       -1.73354053585449
C           -1.91895747680897       -1.96721434944960        0.35691644641543
C           -3.16369393667286        0.01260519393727       -0.62616375008188
H           -1.75526065636485       -1.44787762309132        1.29899942388636
H           -2.84888947960775       -2.52064969904892        0.43216083752009
H           -1.10199104198172       -2.66695221798095        0.19156441355104
O           -2.91932371746648        1.23998807574613       -1.09906710236235
N           -4.20741789810739       -0.41254174754242       -0.07095068556615
H           -5.07008783941117       -1.86556576051291       -0.78179867567793
C           -5.48589594123895        0.23845070010975        0.10701824967467
H           -5.62421617355282        0.34386986014508        1.18994735954526
C           -5.62187375285603        1.61814628378036       -0.56100119168694
C           -6.52527996517679       -0.76299199508133       -0.38756615786270
H           -4.83232691891936        2.25225161451918       -0.15362166983197
H           -5.42985707175517        1.49825183638550       -1.62972961207620
C           -6.96134801372739        2.33762347192069       -0.38333475791381
O           -6.04180799820155       -1.90282611423770       -0.90232592774503
H           -7.73479052730725        1.76802179714138       -0.90280801740964
C           -7.34993165162087        2.47892428666829        1.08574137468985
C           -6.87019358293017        3.71815751984558       -1.03324827149389
H           -6.56789599878073        2.99767639714297        1.63730725581352
H           -8.26842456594572        3.05405511573340        1.17464847843515
H           -7.51220825688495        1.50609124129862        1.54189012928369
H           -6.59244243411315        3.63392256457767       -2.08124904789160
H           -7.82908502868382        4.22686985174707       -0.97365217098475
H           -6.12446898215470        4.33000756590579       -0.52940407926954
N           -7.75628419036744       -0.50847545238466       -0.28731860215086
H           -9.17060288296464        0.58818112998200        0.17741747582567
C           -8.75308904046935       -1.45205124973149       -0.74827043709452
H           -8.52868002979502       -1.81753985355968       -1.75799228739397
C           -8.88448964822949       -2.65619821164487        0.19278132490354
C          -10.10341581213348       -0.72387306641700       -0.77075985436527
H           -9.07240040150659       -2.31497365376749        1.20908971336089
H           -9.71414203610182       -3.27699839770263       -0.13352766183175
H           -7.96790333973048       -3.23991384385817        0.17737971837824
O          -10.09555581906426        0.43411069062981       -0.12126944711565
O          -11.08127480851119       -1.17547271268097       -1.29956560322245
