42
 energy: -62.486133504511 gnorm: 0.000481117194 xtb: 6.7.1 (edcfbbe)
N           -1.32816524462963       -1.66251965994506        0.74262378140127
H           -0.31667102763630       -1.65697198291495        0.76628856107835
H           -1.62352433351042       -2.59618005452177        0.47151865470265
H           -2.79129793358155       -1.13753285274127        1.86216766196925
C           -1.84376922985458       -0.67431265936873       -0.20290964167933
H           -1.24952487070293        0.23996124009861       -0.08786173052952
C           -1.81103382606869       -1.11068399322784       -1.66726206855506
C           -3.26026905032556       -0.32397742460354        0.23465726197326
H           -2.33833730936706       -2.05558453019968       -1.79397213441929
H           -2.29802742450810       -0.35642979377039       -2.27679152489139
H           -0.78453964953611       -1.23777067713207       -2.00426314209625
O           -3.57718171800538       -0.68696831757929        1.48933647683643
N           -4.01900805571712        0.30672933784920       -0.55194229948308
H           -4.78243669972486       -1.65036115940672       -0.66272861560347
C           -5.37088273964800        0.64918502071111       -0.16108957489186
H           -5.39508735611284        0.98648515372383        0.88517953744664
C           -5.77224563518620        1.80257530992811       -1.09755947385687
C           -6.28814474058940       -0.56173116784818       -0.24408300594342
H           -5.01121647400412        2.57469978578127       -0.96124178590062
H           -5.68133100260076        1.43587413826469       -2.12160555307055
C           -7.15482763577447        2.42941650571979       -0.90994359039382
O           -5.72432470826611       -1.76485901400480       -0.46590875635749
H           -7.90826320440906        1.70733338880096       -1.23031243680977
C           -7.42145331543612        2.81675909374514        0.54188858551869
C           -7.26826374628798        3.66107647625870       -1.80818165549755
H           -6.65156998876910        3.49722003291947        0.90080540709516
H           -8.38377912744114        3.31628584418452        0.62498244836357
H           -7.43610219827370        1.93833640125725        1.18130093981012
H           -7.07059396532858        3.40148310638605       -2.84540496294417
H           -8.26871587911545        4.08178020261081       -1.74593572626879
H           -6.55527057105205        4.42464986034244       -1.50344173642915
N           -7.53801610471747       -0.40752955238879       -0.18565717462718
H           -9.08621364532371        0.61010781289225        0.08608895311763
C           -8.42901384060814       -1.54280804171188       -0.29154764304353
H           -8.17210253866761       -2.18194820902016       -1.14558122438793
C           -8.42357121979043       -2.39662865410937        0.98332245177423
C           -9.85132696105966       -1.00143702487141       -0.47673762478954
H           -8.65489224816191       -1.77648610768751        1.84744509789217
H           -9.17241540889924       -3.17888765169209        0.89557792828742
H           -7.44448596118665       -2.84735340457815        1.12275242061773
O           -9.98280638980421        0.27599462624195       -0.13825665082296
O          -10.76548828140410       -1.67901726252609       -0.85678132655399
