42
 energy: -62.486133514301 gnorm: 0.000479247712 xtb: 6.7.1 (edcfbbe)
N           -1.99112220388192       -1.07237550176745        1.50065555539986
H           -1.07778708586800       -1.50536654274331        1.43462171114553
H           -2.55657613905662       -1.64965458475007        2.11804482260519
H           -2.85284195488765        0.62961014500713        1.81141028005186
C           -2.62791965436911       -0.99680040752462        0.18586184524866
H           -1.89606396287218       -0.55793919455994       -0.50520947862376
C           -3.11010661570068       -2.33538530571183       -0.36835999694472
C           -3.77653306008328       -0.00799472842947        0.30900238213018
H           -3.80777796957189       -2.79735670368656        0.32687927115239
H           -3.62564388698344       -2.16980526281005       -1.30786725905961
H           -2.26886443557107       -3.00692102287196       -0.52837773311760
O           -3.64943595464122        0.88675327730009        1.30542168234033
N           -4.74839523142687       -0.08017286441452       -0.48450617729573
H           -7.71446146437796        0.94642195736046       -2.05125139064600
C           -5.86776967738967        0.83429652887601       -0.36751529667182
H           -5.90581897693631        1.27549016536081        0.63894195604102
C           -5.73490793995348        1.95410758920310       -1.40620977637962
C           -7.09625457491335       -0.04508299227116       -0.53197122376834
H           -4.70914839628800        2.32547018816519       -1.35355120989837
H           -5.85597139289404        1.53233740312545       -2.40937438179225
C           -6.69884826835065        3.12967657800858       -1.17443488945094
O           -7.98636523170575        0.19351081031130       -1.51091064660205
H           -7.67171009528992        2.75073063614271       -0.83813785464978
C           -6.15968342654266        4.05856287679235       -0.08836046332593
C           -6.90293323504291        3.91009420749987       -2.47285105302687
H           -5.22897117639717        4.51855564485996       -0.41364841741145
H           -6.87599229088681        4.84811567006388        0.12655057048498
H           -5.96719887241620        3.51259447313313        0.83158599033337
H           -7.34855576551407        3.28729993294595       -3.24691514742038
H           -7.55901653931095        4.76072110381258       -2.30443935236152
H           -5.94953031527937        4.28230962049256       -2.84159587614256
N           -7.20270788689084       -0.99677214475602        0.28474979063967
H           -6.42939103361311       -1.88948269524195        1.57486641763240
C           -8.24690928233349       -1.99059246606291        0.26764456541853
H           -9.23254897805383       -1.53408048262537        0.42291540545304
C           -8.27908674309929       -2.81967610104991       -1.02058780248685
C           -7.95386398377563       -2.93701284766964        1.44718926505345
H           -7.28581006299444       -3.21244488398353       -1.22906176360610
H           -8.97115791944452       -3.64737516268575       -0.89251809093940
H           -8.59930846543219       -2.20439270249130       -1.85657958903226
O           -6.79232384263632       -2.68764860394257        2.03964129521219
O           -8.69087727692897       -3.82435142633027        1.77718725860156
