42
 energy: -62.486133513497 gnorm: 0.000480085216 xtb: 6.7.1 (edcfbbe)
N           -1.46916161674045       -2.10512655850074        0.03767483807765
H           -1.64080490146701       -2.54705486005041        0.93502342658359
H           -0.47410960825726       -2.15234905694172       -0.14788264871712
H           -3.05817728257644       -2.44028870567075       -0.92355094505285
C           -1.93266326250925       -0.71775454184142        0.04567483662730
H           -1.74701748912923       -0.19242000904233        0.99148948733923
C           -1.27232622622052        0.05775584758060       -1.09422897589765
C           -3.43644477780432       -0.74505806296779       -0.19837641537682
H           -1.45084996356007       -0.44385667991514       -2.04344074448295
H           -1.68740634631876        1.06004446695221       -1.13886495452168
H           -0.19876885623738        0.12799365858900       -0.93266488626081
O           -3.84330432636273       -1.85215222995996       -0.87320319969608
N           -4.11704582102712        0.23181026033895        0.17376420160406
H           -5.50873827761162       -1.48348743579354       -1.46409137105080
C           -5.51600695951346        0.53721588953558        0.06529000587839
H           -5.76954372484656        1.01445124970894        1.01709409107839
C           -5.65015649086701        1.58184993431127       -1.06883510821474
C           -6.55904134100087       -0.53829228191399       -0.17231109160312
H           -4.86537383423679        2.32576627737457       -0.91860244810756
H           -5.45286310983721        1.07683979060584       -2.01911038513954
C           -7.01076437998477        2.28138782777580       -1.14284142125254
O           -6.43394350072222       -1.41555890689002       -1.17456065743531
H           -7.79934697146827        1.52309601912918       -1.17672598536498
C           -7.25216173690786        3.17958737635406        0.06687598730948
C           -7.08022140000682        3.10769211576753       -2.42673888548853
H           -6.47661288990821        3.93977556623529        0.13440850146322
H           -8.21456048329289        3.67662960142301       -0.02431145498090
H           -7.25787208215792        2.60574182599969        0.98894274900116
H           -6.95304622372066        2.47590767382914       -3.30308386474115
H           -8.04311535358686        3.60623438525984       -2.50348925539501
H           -6.29960820537103        3.86586886048333       -2.43258700563590
N           -7.59565220229518       -0.46912799457905        0.54894968941735
H           -8.68959762558831        0.54907474058431        1.55405897745751
C           -8.71662144639983       -1.36106945627032        0.34961206988838
H           -8.90926008737020       -1.55015283244186       -0.71438096965336
C           -8.49892430886963       -2.70198393416883        1.05858416572623
C           -9.95169678675416       -0.68092076042340        0.95838808322654
H           -8.25404889434086       -2.53172558382884        2.10514166502045
H           -9.40844704402599       -3.29271609460696        0.99599532943879
H           -7.68220488791047       -3.24261972030972        0.58639660547821
O           -9.66474708975649        0.42163525177070        1.64027146799100
O          -11.06393341670931       -1.11466872358855        0.83918147592209
