42
 energy: -62.486133507953 gnorm: 0.000479711578 xtb: 6.7.1 (edcfbbe)
N           -0.88857921926859       -0.96287585558416        0.30696502973498
H           -0.51518206224632       -0.11494608972283        0.72058736528546
H           -0.11655366875695       -1.47868499763703       -0.09838855296031
H           -2.38288246309116       -1.40518484761646        1.38323106586470
C           -1.89380312031670       -0.64755016481490       -0.70812532480735
H           -1.65686801682239        0.23731676969397       -1.31262539634678
C           -2.09434339974518       -1.84882632897793       -1.63319067020568
C           -3.20070625406702       -0.39477635479833        0.02202180369865
H           -2.33650730777827       -2.73587315482597       -1.05112116637968
H           -2.90796580433338       -1.64506093145359       -2.32282067882114
H           -1.18877872674016       -2.04170599362364       -2.20426047510649
O           -3.27708167750305       -1.02952456623048        1.22618042891534
N           -4.06443954406705        0.34755211311212       -0.49224303944917
H           -4.99070170121066       -1.51443601487935        1.20127212331064
C           -5.38229139960469        0.62617973848391        0.04203364489580
H           -5.28204856953934        0.95595533327933        1.09110468233953
C           -5.98282029160838        1.75395195099664       -0.80081635875205
C           -6.26763241418068       -0.60645326765813        0.08269988377718
H           -5.18946196623524        2.47918199171304       -0.98742161465953
H           -6.27682142848734        1.33003674492245       -1.76036726939961
C           -7.17782460789635        2.45775815671986       -0.14812998797134
O           -5.87557921149401       -1.65534711222869        0.82163797666765
H           -7.84588918299052        1.69707968618501        0.26585876827056
C           -6.72926160465936        3.38451339088756        0.98068090895228
C           -7.94415157965435        3.25987985075111       -1.19833888166797
H           -6.07191742313355        4.16076508688966        0.59406216530083
H           -7.59035630517787        3.86392729836417        1.44058485161830
H           -6.19619690680903        2.83965544888718        1.75605548575250
H           -8.32684352300821        2.61110886914148       -1.98209867732692
H           -8.78593050806749        3.77573770475876       -0.74231109653694
H           -7.29374221852259        4.00368260286599       -1.65378017231277
N           -7.35981235281538       -0.59033394122294       -0.54683667897852
H           -8.42493471340720        0.16842050797614       -1.78008955488658
C           -8.27184062291605       -1.70945116676277       -0.53944303376187
H           -7.75109603164189       -2.66648318958860       -0.66988991512152
C           -9.09041722809952       -1.76444085757173        0.75567829136040
C           -9.24135857988582       -1.50226416439825       -1.71340891863111
H           -9.58742673896729       -0.81047926626185        0.92174627212753
H           -9.84004152312376       -2.54631809941253        0.67378579510104
H           -8.43659713676111       -1.97611383512732        1.59799772775198
O           -9.15636178982916       -0.29440823082711       -2.25668200376005
O          -10.01314243726516       -2.34319066863935       -2.08285969523090
