42
 energy: -62.486133520656 gnorm: 0.000479137132 xtb: 6.7.1 (edcfbbe)
N           -1.17135854019538       -1.63783409612524        0.68959840407326
H           -1.15367611458331       -1.44875743165995        1.68641414883073
H           -0.21552274934027       -1.76841280948199        0.38036677241981
H           -2.83507365865073       -2.51531585387349        0.45304754192692
C           -1.80776743682073       -0.53931813079336       -0.03551332788930
H           -1.54794990433717        0.45684693950683        0.34582172610143
C           -1.44410163150041       -0.61752683433995       -1.51855627769346
C           -3.31370920965298       -0.72468710139084        0.10075158098041
H           -1.69065474584933       -1.60026011728509       -1.91548773516297
H           -1.99747258377511        0.13730762090232       -2.06905829638020
H           -0.37935349913931       -0.44301176557298       -1.65666559452939
O           -3.67160658360166       -2.02302303805190        0.30530691141701
N           -4.05064175254922        0.27393333998103       -0.01438806505577
H           -5.11589779938036       -1.92739410546466       -0.72723585108356
C           -5.47090986929511        0.47657145970622        0.05961014866902
H           -5.67137741639653        0.84430193474978        1.07196534588706
C           -5.71925191471633        1.63641257891069       -0.94148222150634
C           -6.45538790294297       -0.64556343391067       -0.22809299285467
H           -4.91058475793368        2.34998720125422       -0.77434190830813
H           -5.59989476997017        1.23352893407469       -1.95027245132872
C           -7.05935974586514        2.36742880593289       -0.85386727519795
O           -6.06587210140895       -1.76962759501340       -0.84555934266659
H           -7.86236664043712        1.65884094899272       -1.07000500231828
C           -7.29340974401329        2.97474879322463        0.52628714553157
C           -7.09505913256343        3.46617560301390       -1.91619716202600
H           -6.48743203577248        3.66044492898849        0.78022575464089
H           -8.23006049887051        3.52640084696977        0.53643848914841
H           -7.34822631794789        2.20506724082649        1.29127450105139
H           -6.93748796675826        3.05078986170593       -2.90869961663259
H           -8.05916013868392        3.96810893404884       -1.90594481879942
H           -6.32035778673255        4.20636708687706       -1.72654601628332
N           -7.67267830880563       -0.40403898715970        0.01666332904508
H           -9.00772226817612        0.70215544557893        0.59847721057690
C           -8.70881365371039       -1.36189675455650       -0.30365075998074
H           -8.61970233558143       -1.72386573569974       -1.33574408250572
C           -8.69790661053507       -2.56823217784927        0.64353525856988
C          -10.05822919778265       -0.64788028936692       -0.14577698940230
H           -8.73707098977704       -2.22864645991790        1.67697327070140
H           -9.56489044493097       -3.19035527341227        0.43990355608333
H           -7.79222762001039       -3.15037076533167        0.49459957760167
O           -9.96744480517531        0.53683669619454        0.44719995357427
O          -11.09852006733129       -1.12826236491987       -0.50243953153932
