42
 energy: -62.486133521981 gnorm: 0.000478720551 xtb: 6.7.1 (edcfbbe)
N           -1.20655603881186        0.27081445531257       -0.40879137323690
H           -0.26363050552855       -0.05828207321607       -0.23003990776105
H           -1.61742186640210        0.55845465792689        0.47296839186713
H           -3.53257301588971       -0.49619149371377       -2.90891404591388
C           -2.01164592152385       -0.79028408166933       -0.98551436325459
H           -1.67090130343671       -0.93157332435075       -2.02219524182689
C           -1.90998747056220       -2.13497985620842       -0.24306370783283
C           -3.45676202355143       -0.33452628574595       -0.98473663883938
H           -2.23897108191627       -2.00708307881894        0.78591581131262
H           -2.52763935835953       -2.89118731953965       -0.72347081011594
H           -0.87878438960556       -2.48241233108734       -0.24387467295904
O           -4.11197565216698       -0.29693785473959       -2.16323947453943
N           -3.97993253615673       -0.05326854948059        0.12714850263190
H           -4.87979420541898       -1.94874089985308        0.11150689324478
C           -5.35570048891606        0.39345202639672        0.26068227065012
H           -5.48792310022034        0.55710020892655        1.33948752350051
C           -5.55016400274441        1.73186211818184       -0.47051095727588
C           -6.31904505431784       -0.71426839232606       -0.12527129440151
H           -4.73944886258867        2.37953888845979       -0.12390166773407
H           -5.40883269706470        1.56225562234699       -1.53816296191518
C           -6.88338352702851        2.45843704671405       -0.27013085262516
O           -5.81967463032072       -1.96908297167523       -0.12312700961432
H           -7.64683145762655        1.93651294574378       -0.84994323737259
C           -7.31962312561262        2.50670340775071        1.19088736042003
C           -6.75705399595194        3.87664288915248       -0.82695682811197
H           -6.53928875772074        2.94606773740084        1.80922728765656
H           -8.21531930769296        3.11546382286425        1.29031955541331
H           -7.54452908741267        1.51026539484177        1.56165332270694
H           -6.43104679450917        3.85498447782847       -1.86410995757871
H           -7.71593579795841        4.38683761084704       -0.78125250136466
H           -6.03443479610270        4.45163080602302       -0.25125133442638
N           -7.53316915000289       -0.47383142942158       -0.35698670530064
H           -9.04952075944637        0.63324224673143       -0.45031871680246
C           -8.45057219640440       -1.55099423283906       -0.66748631073058
H           -8.03380613115055       -2.23833665060301       -1.41355946536195
C           -8.83390058194271       -2.35100962385398        0.58526591373059
C           -9.73614198163937       -0.92476886926394       -1.21947528916535
H           -9.22577228934933       -1.68156573660811        1.34977664754477
H           -9.59630918429400       -3.08048885746125        0.32642964486555
H           -7.96106191871538       -2.86677597148457        0.97811317365719
O           -9.87662216068233        0.35822402610017       -0.90392113066734
O          -10.55450405578406       -1.54392617018102       -1.84024071422388
