42
 energy: -62.486133513363 gnorm: 0.000479991491 xtb: 6.7.1 (edcfbbe)
N           -2.11130478271369       -1.27460771826764       -0.71389520645331
H           -1.90878237278371       -0.60391382943784       -1.44784004736664
H           -1.96514891807131       -2.20500093212175       -1.08850237751203
H           -1.72351321170146       -0.36382646511306        0.97514255930593
C           -3.47893071270564       -1.12126175389471       -0.22002070749725
H           -4.22318812349594       -1.04627102936071       -1.02482387256295
C           -3.81577432596158       -2.30575738638365        0.68658028328454
C           -3.49867875379471        0.13202446675269        0.66136818907983
H           -3.07076245550677       -2.39005096809670        1.47494854162344
H           -4.79055647728282       -2.15255176165164        1.14040621000960
H           -3.82631709669816       -3.23183351293128        0.11503690370378
O           -2.35402416334786        0.29224109173361        1.33560007301768
N           -4.41511891411693        0.96181302277019        0.88377635595008
H           -6.10637396657310        0.67659804840879       -2.17079515053387
C           -5.67993713898388        1.15472907212174        0.23767912545970
H           -6.34238767313775        1.45925698023569        1.05999101026017
C           -5.52084832538498        2.35692023674795       -0.71078078666908
C           -6.37640495380200       -0.03798389596801       -0.40333916971840
H           -4.93470423625625        3.10002624198121       -0.16756949166790
H           -4.91416666324538        2.06554963307031       -1.57701768286564
C           -6.84381211370740        2.99470869430718       -1.16248209584758
O           -6.45645708579208       -0.12038195007218       -1.75193595522837
H           -7.55217626998781        2.21522212178454       -1.46814203381671
C           -7.48509247745745        3.78967755056249       -0.02762316788203
C           -6.58826150829147        3.91195747700054       -2.35857055542524
H           -6.81589355670551        4.57888677970885        0.30698215003837
H           -8.41243552310909        4.24527380580073       -0.36663386169836
H           -7.71428270334572        3.15002976430983        0.82039730873337
H           -6.18056968787422        3.35962264018872       -3.20378675250111
H           -7.51394604282307        4.38354797661631       -2.67874643916262
H           -5.88184728079068        4.69358980831398       -2.08817080193002
N           -6.88787033839000       -0.91445616213606        0.34606761496039
H           -7.62025198396327       -1.29294722271952        1.99065778884802
C           -7.71275481893222       -1.97599371747971       -0.18934041944480
H           -8.28649975237576       -1.62896584540187       -1.05894692450579
C           -6.92778512270389       -3.22511141671328       -0.60103514837965
C           -8.69698779169102       -2.38482161297959        0.91834262644943
H           -6.40202471314546       -3.64263495259836        0.25396692063914
H           -7.62655448444670       -3.96677418593326       -0.97783234992013
H           -6.21206663489858       -2.97739600388707       -1.38098617393115
O           -8.40246636972123       -1.87831095095980        2.10934443893995
O           -9.62923043717396       -3.11255871639039        0.72160692076208
