42
 energy: -62.486133521742 gnorm: 0.000478602002 xtb: 6.7.1 (edcfbbe)
N           -2.19015502225644       -1.27312517479009       -2.21795556124765
H           -1.54789817061321       -2.01625276129335       -2.46212576682914
H           -1.73953142849558       -0.38935953343720       -2.43745656088644
H           -4.00762285898762       -0.81189433233807       -2.49224138560250
C           -2.53974227457232       -1.31745774471965       -0.80019825173619
H           -2.74237780422531       -2.36482537423562       -0.54380223953898
C           -1.46722432042502       -0.76808232382332        0.13770577683884
C           -3.86148488954491       -0.57271268030390       -0.63666343717899
H           -1.22988615406622        0.26011636596342       -0.12830114134486
H           -1.84011075433455       -0.78062297328913        1.15589674051219
H           -0.56170101166189       -1.36837635702461        0.07554292770032
O           -4.55167984548117       -0.41730652770498       -1.77602396895014
N           -4.20568779166485       -0.20117791996362        0.51444494946564
H           -6.44025006548125       -0.91391959404161        2.57037086214460
C           -5.46421611396553        0.45924052220581        0.80742125210092
H           -5.37663121755323        0.76350097567220        1.86018095876024
C           -5.74939097125257        1.69253537599233       -0.05784581794757
C           -6.56854704324717       -0.56764579110891        0.68196655335905
H           -4.87179132935351        2.34206173724817       -0.02975791327102
H           -5.89723577918841        1.35305833121103       -1.08168584806745
C           -6.98832226137251        2.47137677213504        0.39696005513936
O           -6.96843264647413       -1.19455573124923        1.81303769996224
H           -7.80141327772446        1.75704759590326        0.56732940136101
C           -6.73398833267367        3.24824640274765        1.68724298411139
C           -7.41907910161510        3.43310106467925       -0.70889107589307
H           -5.92215822638170        3.95885001481208        1.54576243077584
H           -7.62521139376222        3.80110143826192        1.97578623072904
H           -6.47020719128647        2.58668956841414        2.50871864720566
H           -7.65489012408383        2.88797453360982       -1.61936286965787
H           -8.30052666301719        3.99377585981304       -0.40626319572063
H           -6.62135678049617        4.14003515062453       -0.92714117987772
N           -7.02618316593993       -0.84597024397030       -0.45468365066964
H           -6.51445923216976       -1.05853868452694       -2.21743819759603
C           -8.02875738067632       -1.85732419632077       -0.66949816669943
H           -7.92178717186692       -2.70717483323067        0.01922528232446
C           -9.43697018725889       -1.27264003676246       -0.52054443882862
C           -7.85621382464737       -2.37318676041417       -2.10748080948984
H           -9.53557374385645       -0.38526203871994       -1.14224142944876
H          -10.16696281689208       -2.01300242649971       -0.83544684436577
H           -9.61930381825487       -1.00183270351395        0.51649365974534
O           -6.92849825025203       -1.73548779135635       -2.80681399353462
O           -8.51273079025215       -3.27300292141256       -2.55528733530458
