42
 energy: -62.486133516089 gnorm: 0.000479465195 xtb: 6.7.1 (edcfbbe)
N           -1.04133145501910       -0.53342260936350        0.61346555453776
H           -0.12607591860470       -0.83784327132435        0.30476254536838
H           -1.25261810406594       -1.02778429020944        1.47616501461575
H           -2.06249970621506        1.08006345701300        0.90634247157136
C           -2.06040389127592       -0.83645201302573       -0.39027601150019
H           -1.67383664991603       -0.49125586437359       -1.35846530153553
C           -2.43533947048957       -2.31294976918963       -0.49393694576999
C           -3.27159564370590        0.02744584671383       -0.06912361416242
H           -2.80416627709934       -2.67234509187722        0.46425604409797
H           -3.22352474847793       -2.43794060353162       -1.22820987261293
H           -1.57088709876590       -2.90527985255756       -0.78765230749437
O           -3.00778342704516        1.12463502412389        0.65740457803884
N           -4.41004729984617       -0.31509873721285       -0.47990232074921
H           -5.91464314956207       -0.47563956642423       -2.35023748927486
C           -5.57722947207924        0.50752263020823       -0.22421385259415
H           -5.67021153804349        0.71646596578707        0.84706679490214
C           -5.52849317949741        1.83521579229072       -1.00083799329608
C           -6.75584886648885       -0.32790295497578       -0.66307700201776
H           -4.74504432005541        2.45390524027800       -0.56071687740564
H           -5.24202996688402        1.62960765058453       -2.03750669472158
C           -6.85588634705391        2.60136861617972       -0.99018964376054
O           -6.76115410308685       -0.71618102383602       -1.95053963035302
H           -7.63189418685619        1.97025915492180       -1.43844094627302
C           -7.28891561417540        2.96129175357989        0.42839105538561
C           -6.71473524959917        3.86596857549286       -1.83613149403036
H           -6.49693450025285        3.50323594911491        0.94092902989226
H           -8.17399933991965        3.59233266399435        0.39943708271432
H           -7.53050210959053        2.06854376888283        0.99847264670430
H           -6.42245724601710        3.62185966021649       -2.85532825521284
H           -7.65796887670720        4.40530896230200       -1.87221543747541
H           -5.95978631601932        4.52324488260384       -1.40976193982972
N           -7.61580204836833       -0.68966911394873        0.18274456455184
H           -8.41328514943460       -0.47246647374668        1.79002910873374
C           -8.74050157398510       -1.52370427138595       -0.18359908549976
H           -9.19468316382609       -1.20349796379795       -1.12954603906196
C           -8.33690281787203       -2.99722214192740       -0.30308243821270
C           -9.78539029087310       -1.39452188696904        0.93450355247089
H           -7.84675619054632       -3.32245410606506        0.61222885303950
H           -9.22594907722397       -3.59987002557043       -0.46587634362910
H           -7.65195633206378       -3.12651892344761       -1.13697402352626
O           -9.33475051908221       -0.75101290211632        2.00521612436949
O          -10.89237002120699       -1.84926797286117        0.85336156013687
