42
 energy: -62.486133518849 gnorm: 0.000479540051 xtb: 6.7.1 (edcfbbe)
N           -1.54670222957931       -0.56203827679214        0.77099885532168
H           -0.79448354233729       -1.23919088333568        0.72298196615850
H           -1.66376922520897       -0.30681877592084        1.74814587985331
H           -2.15405254597890        1.00767145797559       -0.17055860339380
C           -2.79427498225375       -1.13710695978373        0.26364665810060
H           -2.56686599077658       -1.56997355135975       -0.72022031310698
C           -3.41473278495833       -2.20946812138619        1.15222679787373
C           -3.74743684284247        0.02658766587637        0.01040006168072
H           -3.69381811639536       -1.78729820662590        2.11389726739383
H           -4.30810395903678       -2.60126389483468        0.68098024174342
H           -2.70844512271298       -3.02208621953278        1.31097497374231
O           -3.10809126396029        1.17642509023188       -0.30878129501199
N           -4.97756249706532       -0.16909835094650        0.11893524163486
H           -8.04543900458594        1.31468570783542       -1.50259755859800
C           -6.06472738714630        0.74232698474419       -0.11885215316650
H           -6.32301922493639        1.17117544223861        0.86164323562449
C           -5.83132249799013        1.89299410971246       -1.11987073781711
C           -7.24523711166790       -0.13468175113834       -0.51986500527675
H           -4.76924743150693        2.12826785945609       -1.13232750341754
H           -6.08585223816603        1.55132253601054       -2.12852000784257
C           -6.59517076582828        3.18218927242761       -0.77165404956277
O           -8.23120967441951        0.39503096966449       -1.27440735454010
H           -7.60569928933247        2.94384384995297       -0.41197708439259
C           -5.87585112993876        3.94072172617192        0.34220122143454
C           -6.72058121550977        4.06878005921235       -2.01000990258874
H           -4.88363354025029        4.23954159050982        0.01203612843241
H           -6.43243518734925        4.83369338489972        0.61748440118701
H           -5.76578765651661        3.32105206866809        1.22906983937853
H           -7.27054494594369        3.56600698932483       -2.80395368134963
H           -7.24332686833032        4.99098839335475       -1.76699792091716
H           -5.73362324352134        4.32483273783852       -2.38856457042996
N           -7.27470902381298       -1.31693154659314       -0.09770192380371
H           -6.57163462750694       -2.50473069202727        0.99543084099723
C           -8.33577517281400       -2.24918681110598       -0.38166271051687
H           -9.32382534726295       -1.82065936968888       -0.16854677124165
C           -8.31319069573115       -2.73838540215676       -1.83334908769150
C           -8.10929754365824       -3.45424980605300        0.54999383162858
H           -7.31901488472397       -3.10329922117673       -2.08342819876493
H           -9.02954739309182       -3.54688503607007       -1.94883800618652
H           -8.57276025658315       -1.92483579917624       -2.50572756889515
O           -6.98150174224086       -3.37542609564819        1.24129165777573
O           -8.87388710039238       -4.37654929359103        0.62500866572656
