42
 energy: -62.486133517905 gnorm: 0.000479077954 xtb: 6.7.1 (edcfbbe)
N           -0.75603654978427       -0.07457296269148       -0.39871470119279
H            0.05124913199139       -0.27216220266438       -0.97729842763596
H           -0.59474568423695       -0.50625192887611        0.50733631223921
H           -1.89392030176215        1.41430247746552        0.10232315435001
C           -1.97449880708941       -0.61750112642173       -0.99786252713954
H           -1.98129298581988       -0.31291062451560       -2.05259316017155
C           -2.11064009242067       -2.13618443338102       -0.91555308427923
C           -3.15058857256824        0.09135307119464       -0.34247692548715
H           -2.06357677322866       -2.46275151242552        0.12184817787798
H           -3.06842151907695       -2.43373080380925       -1.32874990342035
H           -1.31174799665052       -2.62013173746312       -1.47347773933533
O           -2.86063455146199        1.29099374124055        0.18845213039485
N           -4.28271069237108       -0.45500014367249       -0.34311684523715
H           -5.33329582373824       -1.99960325459340        1.09596771670220
C           -5.45523817951038        0.19587319260808        0.21658094517452
H           -5.27245216576313        0.45274954970800        1.27114944044815
C           -5.83739301129710        1.46274126005819       -0.55819193895277
C           -6.53179691895994       -0.86665102183625        0.15187807176169
H           -4.95644623830342        2.10299671092664       -0.61953298146695
H           -6.10869889119247        1.15672509717147       -1.56951267484540
C           -6.98693865646053        2.25608175756927        0.07313400527964
O           -6.26396885072754       -1.99959587334408        0.83563830862323
H           -7.77759510595319        1.55767415163367        0.36139424878900
C           -6.52235126236874        3.01407055137955        1.31508027513252
C           -7.55395561532894        3.23776239051037       -0.95108721162600
H           -5.73137691306047        3.71524804930963        1.05688984198417
H           -7.34892483079828        3.57339729580959        1.74730115731029
H           -6.14272182074874        2.33578300086502        2.07511328290864
H           -7.94492163882872        2.71205468698398       -1.81877646112579
H           -8.36154216651251        3.81943226630722       -0.51296608025484
H           -6.77945100533367        3.92548655846020       -1.28450412556279
N           -7.54890540385862       -0.71833256877175       -0.57100352391124
H           -8.42556537282645        0.22489579405840       -1.82200681593808
C           -8.55729474658762       -1.74082684904590       -0.71639326223174
H           -8.11260474602793       -2.72715599786163       -0.89997253177694
C           -9.46563742321211       -1.83141888169965        0.51470255790664
C           -9.41819928458566       -1.34632250771662       -1.92738475382906
H           -9.88643972077262       -0.85325305372097        0.73987031894220
H          -10.27462033238801       -2.52760940867415        0.31225314858012
H           -8.89408628291061       -2.17861776413842        1.37168321532678
O           -9.16552745260637       -0.12326771668175       -2.37630633243282
O          -10.25067600770844       -2.06779508019640       -2.40217925610588
