42
 energy: -62.486133504009 gnorm: 0.000480209967 xtb: 6.7.1 (edcfbbe)
N           -1.56516296593545       -1.05804474660586       -0.07595446396520
H           -0.98634499305214       -1.88905310683824       -0.06482753744269
H           -1.16316239698973       -0.39732503875584        0.58389228420144
H           -2.39489664670552        0.10429447717617       -1.33169608989014
C           -2.93884058755269       -1.37476694753104        0.31851521782582
H           -3.24343808494215       -2.26272203910519       -0.24974269324599
C           -3.12538561270769       -1.64658249056791        1.80814276956480
C           -3.82752381114805       -0.23075617509360       -0.16912970678817
H           -2.79830554138883       -0.78671401786436        2.38953067697858
H           -4.17463382895366       -1.82273699140443        2.01543882960351
H           -2.54888395204803       -2.51877336338940        2.10892898195069
O           -3.29481502223211        0.46673730508013       -1.19322569278224
N           -4.93886858303117       -0.07865287348251        0.38414676732815
H           -8.31598244955481        1.57326779180005       -0.37666679488207
C           -5.99317730942595        0.85759818534252        0.09823474162263
H           -6.15779034962733        1.40535553432824        1.03797994214887
C           -5.69876762191460        1.85729081832060       -1.04190271639892
C           -7.22873333104520        0.00396289723187       -0.13127931106626
H           -4.70921385585051        2.26824804976238       -0.83538015322352
H           -5.62464245650387        1.29336134846544       -1.97409360351969
C           -6.64973913457679        3.04504404660479       -1.25213035751496
O           -8.40483585318635        0.61300606574549       -0.39730659186172
H           -7.60074400168878        2.70238615447627       -1.67827256473153
C           -6.91593138684904        3.82350947557183        0.03669450588904
C           -6.02295518703479        3.98049054275704       -2.28889293277234
H           -5.97506708559436        4.14687210034662        0.47725475764817
H           -7.51134827297471        4.70865069696738       -0.17795031409642
H           -7.45260800410525        3.23541514651916        0.77968716492625
H           -5.81463598924246        3.44404934075025       -3.21137984072639
H           -6.69579452995601        4.80462452894366       -2.51546586099639
H           -5.08868396636808        4.39261187946270       -1.91446820209560
N           -7.13185805962542       -1.23705238334142        0.03563410475454
H           -6.12783340237912       -2.54227842349810        0.66284514543756
C           -8.22820380914934       -2.16243859259159       -0.07423770934303
H           -9.10910993091901       -1.82331031397175        0.48685101364401
C           -8.63638621940726       -2.41243519122615       -1.52937768400219
C           -7.73017780303825       -3.48546569015002        0.53727253691925
H           -7.76425156654894       -2.69880847855431       -2.11373513885630
H           -9.36703208676029       -3.21564916164531       -1.56305536776017
H           -9.06847365127125       -1.51011022316827       -1.95464573711110
O           -6.44726479333812       -3.45856509628793        0.87174854947479
O           -8.43468689066878       -4.44656064216891        0.68095384626912
