42
 energy: -62.486133519883 gnorm: 0.000479324705 xtb: 6.7.1 (edcfbbe)
N           -0.77934484245444       -0.26136483808377       -0.67475201569328
H           -0.00859844280679       -0.82842173404432       -1.00638179554169
H           -0.53379634276244        0.07635017059883        0.25208511266508
H           -1.91249703949187        1.14815858639737       -1.27759450640202
C           -2.01400571148982       -1.04124009779543       -0.60525257952373
H           -2.10295365078701       -1.58731499762485       -1.55453120887206
C           -2.07939536755247       -2.03252946239796        0.55367197382770
C           -3.17260476910760       -0.04352149715326       -0.56211528593488
H           -1.95611920358745       -1.50908014891774        1.49926805696714
H           -3.04733574482081       -2.52123928229350        0.56055116889971
H           -1.29655150907261       -2.78218204806393        0.45771111400017
O           -2.86989130178417        1.16299672721317       -1.06897882259250
N           -4.26641116929262       -0.42806217870015       -0.08109177253893
H           -5.25564416211595       -1.26092151665739       -1.77628250323804
C           -5.51336275906019        0.29040171098867        0.01434704271945
H           -5.72541372614872        0.38349965716035        1.08417812679026
C           -5.58366792498902        1.68020384800114       -0.64760068395466
C           -6.57518718580624       -0.61035770192179       -0.58619894665800
H           -4.79207623751522        2.29956317335589       -0.22397953730055
H           -5.37894344785405        1.56731946913725       -1.71550193739905
C           -6.92588908581118        2.39809921595168       -0.47036311585852
O           -6.21348233690759       -1.34052007417480       -1.65624900963001
H           -7.72624361595868        1.75425695947237       -0.84717578974658
C           -7.21025032706231        2.72033978827356        0.99451478274950
C           -6.91877451649671        3.68625423755718       -1.29268474071103
H           -6.41952193771360        3.34492234812410        1.40528161918721
H           -8.15124823498621        3.25735411948615        1.08176628933455
H           -7.28398668947111        1.81530227592758        1.59078265041033
H           -6.75335750681879        3.47272799797901       -2.34622840351163
H           -7.87056881430651        4.20232848221018       -1.19463240697265
H           -6.12954841468892        4.35220680897301       -0.94965796048396
N           -7.72806442827350       -0.63366956779981       -0.07999180542936
H           -9.02107320821932        0.26086479053791        0.84879157602244
C           -8.78755671676775       -1.44453857369456       -0.63826405381789
H           -8.75442236741530       -1.47278302305023       -1.73483052736675
C           -8.72440348111899       -2.87915299255802       -0.10324982058793
C          -10.12156030956959       -0.82132863067135       -0.20140778925552
H           -8.71479790202595       -2.86839706831895        0.98470567962857
H           -9.59541095330279       -3.42944945243649       -0.44768277674754
H           -7.82119197629716       -3.36749314890297       -0.46049409877642
O           -9.98803646348591        0.14671796049567        0.69728450721956
O          -11.18300143382275       -1.18832615071762       -0.62283077966623
