42
 energy: -62.486133507188 gnorm: 0.000479831215 xtb: 6.7.1 (edcfbbe)
N           -0.76513782601522       -0.03231205194628       -0.02662405085759
H            0.11770341716354       -0.17488914681940       -0.50162321311040
H           -0.71459544841345       -0.51755461036439        0.86496697934367
H           -1.99207536297890        1.40884330780894        0.40633736901037
C           -1.87761774531113       -0.55566183167726       -0.81712262964020
H           -1.74370845180049       -0.19599543393094       -1.84569864565325
C           -1.99427578559923       -2.07890032890583       -0.83203913219181
C           -3.14473701882666        0.10294748859701       -0.29209815127539
H           -2.13339914676566       -2.45673808065328        0.17935207310435
H           -2.84704361728831       -2.37281430738354       -1.43490668114770
H           -1.09345416156575       -2.52224410486900       -1.25149697082162
O           -2.95821831325574        1.26758321286256        0.34374926247821
N           -4.26174964050496       -0.44114269624431       -0.49457662987788
H           -5.08355354379390       -2.11453246923290        0.08698118277135
C           -5.49564039812992        0.16510430448515       -0.02954844919350
H           -5.38415018868226        0.47333895536718        1.02130420824347
C           -5.89570314760365        1.38901828326108       -0.86416619523839
C           -6.53142704059399       -0.94118406719946       -0.08442879420888
H           -4.99520453176702        1.96813793117371       -1.07653794691748
H           -6.30104304104831        1.03115567962358       -1.81152717730457
C           -6.91670696913032        2.29426153878231       -0.16416530264328
O           -6.05445759182319       -2.17425258082743        0.15523205416902
H           -7.65828175207448        1.66022722537482        0.32973464562249
C           -6.24055517010722        3.17197600970543        0.88725137429907
C           -7.62581335803124        3.17220771378034       -1.19361848932447
H           -5.52330410699755        3.84134047963161        0.41658010896173
H           -6.97993730690353        3.77414097939928        1.41010132706742
H           -5.71062179358435        2.57202409783681        1.62277149701357
H           -8.15457636987427        2.56724618672864       -1.92596074084432
H           -8.34741869863377        3.82209130890370       -0.70457307324608
H           -6.90484943419611        3.79630613403069       -1.71809193257655
N           -7.72657436986245       -0.69270358850480       -0.39309047437129
H           -8.91096651819809        0.39827328667214       -1.22700043552040
C           -8.71844972671540       -1.73802743291320       -0.49368498724283
H           -8.30654763396288       -2.65697840215257       -0.93060183521786
C           -9.32368118936255       -2.06957473309990        0.87458243238425
C           -9.83739110428685       -1.21059138287190       -1.40394406769909
H           -9.69764195118900       -1.16248272951352        1.34542097688703
H          -10.14526671482176       -2.76830993144210        0.74439249786412
H           -8.56647578453144       -2.51554429821591        1.51477353620917
O           -9.73719774571876        0.08683801807498       -1.66733258822133
O          -10.72444498058205       -1.90265382462181       -1.82013795819077
