42
 energy: -62.486132276594 gnorm: 0.000625462246 xtb: 6.7.1 (edcfbbe)
N           -1.29790001242527        0.19420417732725        0.35231615991835
H           -0.42330134541906       -0.18496138819656        0.69903872532116
H           -1.94782287835830        0.26549615337700        1.12821788697748
H           -2.99059740093450       -0.23771761876537       -2.80139074277770
C           -1.86459027488216       -0.68086557102785       -0.65519953225988
H           -1.29292357471936       -0.52665360045701       -1.58354331018718
C           -1.82436495385453       -2.17646863400335       -0.29023767149371
C           -3.30749651540790       -0.28481792891815       -0.87793868261906
H           -2.39056216151481       -2.34083385921539        0.62352269813700
H           -2.25561947003277       -2.78419724410514       -1.08299420991631
H           -0.79481772066086       -2.49214817310042       -0.13415530276027
O           -3.73054746377724       -0.20527791945857       -2.18262389598900
N           -4.03950546815391       -0.12586673942852        0.12246227307059
H           -5.17643996837151       -1.34090256225297       -1.65706165632436
C           -5.40925315127819        0.32168971240722        0.16735301065236
H           -5.62651643757603        0.46733901456139        1.22947200281305
C           -5.55318027131293        1.67151175424935       -0.57446171542703
C           -6.42056852094520       -0.67138296712986       -0.36879414959154
H           -4.74036394018338        2.31257550022753       -0.22348868456158
H           -5.40032834213553        1.49327429171370       -1.64149780259889
C           -6.88655291243519        2.39597691446946       -0.38001639510232
O           -6.03534430181297       -1.58057113619423       -1.28053972219521
H           -7.69521493436760        1.73733526038165       -0.70839835690524
C           -7.12604188612605        2.77754808291682        1.07806005755978
C           -6.90366123303918        3.64910634495649       -1.25504145151337
H           -6.32043991483357        3.41268072599242        1.44109352130665
H           -8.06178684094220        3.32293947296180        1.17039138492391
H           -7.18596826387978        1.89694554908421        1.71133651011263
H           -6.76001185779969        3.39328497882033       -2.30241760523225
H           -7.85653623446126        4.16285175173784       -1.15755804509941
H           -6.11208126503148        4.33357647948869       -0.95651348330172
N           -7.61898267909085       -0.54235737517943        0.00500913266440
H           -8.94051266338848        0.43094290638652        0.82932977618669
C           -8.66872640593677       -1.38822456619948       -0.51498564560832
H           -8.57975524980627       -1.52988711707432       -1.60018555696871
C           -8.67602241538039       -2.76419965326601        0.16061514609420
C          -10.00556864600296       -0.69661911201753       -0.21217612352436
H           -8.72439751431063       -2.64698707049298        1.24140345125431
H           -9.54323996956923       -3.32479003904158       -0.17682190247595
H           -7.77016909877540       -3.30697270482437       -0.09738364167963
O           -9.89887865135904        0.32391098576214        0.63058225457760
O          -11.04959844740373       -1.06251249622325       -0.67584355792162
