42
 energy: -62.486133511524 gnorm: 0.000479758372 xtb: 6.7.1 (edcfbbe)
N           -1.21430330672259        0.24660989867821       -0.03172699361895
H           -0.29814930681640       -0.10586182915128        0.22430827227059
H           -1.73784294059685        0.42532312865899        0.81867715674039
H           -3.21399346292011       -0.23290785238159       -2.87756215694546
C           -1.92793053411077       -0.73197713482988       -0.83047964457737
H           -1.46186848602605       -0.74266526462052       -1.82747020149138
C           -1.90037411853844       -2.15954337445302       -0.25439904595823
C           -3.37013348682217       -0.27938614682874       -0.94708537285427
H           -2.38130393841458       -2.16620205022325        0.72116891770653
H           -2.41920643788679       -2.85568481386861       -0.91079044585621
H           -0.87113961643032       -2.49527739488856       -0.14507869062709
O           -3.88680490397888       -0.13593792986155       -2.19278745495657
N           -4.00786258416918       -0.09467792669795        0.12173414272660
H           -4.92000876788005       -1.86383952306286       -0.76376129040922
C           -5.38376431475519        0.33988120983554        0.20728137744692
H           -5.57355999819882        0.45902553120791        1.28033899912242
C           -5.54891111661221        1.70923715639648       -0.48661613872481
C           -6.36655651062579       -0.70016038476418       -0.30386911729776
H           -4.74927187910940        2.34610879977416       -0.09804896700951
H           -5.37640349536821        1.57083555476051       -1.55503999103682
C           -6.88944024763054        2.42191830382268       -0.29946778539880
O           -5.88622540220943       -1.85734326457297       -0.79511536377989
H           -7.66539035402020        1.83253911492573       -0.79265856376763
C           -7.25587799244385        2.59622430565527        1.17153090248414
C           -6.82146624843728        3.78634841050817       -0.98541385112877
H           -6.46722994042741        3.12960770881847        1.69874938193955
H           -8.17511084556052        3.16992795624903        1.26065245950887
H           -7.40857116503450        1.63445539368412        1.65358582483989
H           -6.56496531254548        3.67794487609481       -2.03667704382454
H           -7.78301791392565        4.28897242302210       -0.91909518128327
H           -6.07104427560095        4.41631869204759       -0.51182992663057
N           -7.60258592785705       -0.46884293486457       -0.21113977448008
H           -9.04913372440108        0.60086167205830        0.26115266787946
C           -8.58196553821829       -1.43421819059821       -0.66189583726610
H           -8.34596404417273       -1.81263883197320       -1.66408410541799
C           -8.70445133060784       -2.62420392082646        0.29846096836746
C           -9.94358125954599       -0.72794109793318       -0.70338843174687
H           -8.90132621375829       -2.26880264230997        1.30819478992396
H           -9.52597175571552       -3.25878812135708       -0.02199095792316
H           -7.78256525591423       -3.19968926753019        0.29769109653094
O           -9.96591455649297        0.42731131739119       -0.04907404453911
O          -10.90500275024503       -1.19488718180307       -1.24804545960123
