42
 energy: -62.486133520289 gnorm: 0.000479042826 xtb: 6.7.1 (edcfbbe)
N           -2.24196738218763       -1.44272611224032        1.59198426229637
H           -1.76041860173967       -0.62384101160393        1.94742090999855
H           -1.57474560369263       -2.20284321964392        1.54202743688738
H           -4.06425995270921       -1.19439022220434        2.19323042434276
C           -2.82408250966527       -1.17296763740601        0.27972950034320
H           -2.17166857656973       -0.60019317601048       -0.39308460414175
C           -3.21097926768029       -2.49174090362089       -0.39240744195894
C           -4.10496821043362       -0.38775196057253        0.50371106607536
H           -3.87139667964202       -3.06148544274740        0.25800580853411
H           -3.72463024907625       -2.28570797613320       -1.32685115006261
H           -2.32438536971380       -3.08700990689485       -0.60056737980919
O           -4.68500025800875       -0.62137667613175        1.69345696453590
N           -4.47981907854300        0.42218926893203       -0.37911867846252
H           -7.70234941139358        1.09066595358268       -1.90736106886976
C           -5.76416710753044        1.08910885924298       -0.37357120445342
H           -5.90897881595602        1.59690393270195        0.59515138184645
C           -5.73551406092377        2.13255536456347       -1.49723574411917
C           -6.90381340575616        0.08475655774431       -0.47190939816363
H           -4.71817147412744        2.52559185537349       -1.52843255623892
H           -5.89497158879236        1.63686115603822       -2.45973297110958
C           -6.71653667280118        3.30088494256929       -1.30453598467865
O           -7.86811302978544        0.28868140340781       -1.39639455460125
H           -7.66444402299669        2.93128727228740       -0.89301306539915
C           -6.15025533400875        4.31994742968334       -0.31735693986048
C           -7.00059885781561        3.97844986583459       -2.64489265355674
H           -5.23940012760599        4.76296699368613       -0.71414163934353
H           -6.86927841311191        5.11581213947290       -0.13753722315450
H           -5.91616556285303        3.85186445950169        0.63556914277057
H           -7.46331946506205        3.28919807508055       -3.34942299120065
H           -7.67121518203292        4.82362962619770       -2.50925701600292
H           -6.07494410904232        4.34391249309332       -3.08393804209530
N           -6.92694723290643       -0.90244136928207        0.30546174999691
H           -6.33482487495220       -1.67550405918102        1.87889258412450
C           -7.96366587725382       -1.90385444510505        0.25627090960200
H           -8.96366027394853       -1.45085760507239        0.22746004661230
C           -7.81157289181397       -2.83358641176360       -0.95267430861740
C           -7.84719980967618       -2.74505390168744        1.53681405494109
H           -6.80206896425584       -3.23936219527630       -0.98273378795909
H           -8.52200032862018       -3.65066462029893       -0.86408220058277
H           -8.00115008255838       -2.28573351192599       -1.87195997734503
O           -6.80852470303018       -2.43761460839582        2.29817710088363
O           -8.62401784268887       -3.62058655756551        1.80778452823672
