42
 energy: -62.486133511051 gnorm: 0.000480090013 xtb: 6.7.1 (edcfbbe)
N           -0.93680851245174       -1.10503501803954        0.14908719907665
H           -0.47510247872781       -0.28838421152837        0.53547127304938
H           -0.23337414856714       -1.67794646187959       -0.30179774902424
H           -2.38444701357815       -1.40458486843846        1.33122215243915
C           -1.97548167552666       -0.71243119088856       -0.80349188184288
H           -1.71172513464364        0.15939901873732       -1.41626159014131
C           -2.31325841225568       -1.88535549121588       -1.72462028774106
C           -3.21730014552655       -0.37211065717374        0.00118653808957
H           -2.57683579090530       -2.76242624114170       -1.13683495235581
H           -3.15383651815593       -1.61832711229198       -2.35806873171578
H           -1.46053732473493       -2.12890287884578       -2.35474045885652
O           -3.25492477118653       -0.96230567355590        1.22564497817707
N           -4.07399999096039        0.39911846482982       -0.48496070561182
H           -5.05186280056879       -1.22424477914287        1.58820540943890
C           -5.33859472503555        0.74067876265236        0.13861794941494
H           -5.15575197711965        1.10819852645815        1.16227319641788
C           -5.96437660860382        1.84478175386636       -0.71602291295530
C           -6.22890382229627       -0.48066454367305        0.26284985420595
H           -5.20563009735685        2.61651715310746       -0.85586139671848
H           -6.18135329974924        1.41387623390873       -1.69291967969121
C           -7.23248812337684        2.47224523342253       -0.12986473655469
O           -5.93318322581458       -1.38537996981773        1.21154585376309
H           -7.91047928537835        1.66974955737928        0.17453842662388
C           -6.92062193123051        3.33915505623755        1.08862170136717
C           -7.92544701339668        3.31242082986277       -1.20119571759799
H           -6.22063542219428        4.12906168597165        0.82342273550589
H           -7.83042473237778        3.80124865794603        1.46492655003533
H           -6.48761965312268        2.75127634381667        1.89422341407717
H           -8.20659790012896        2.69735181650976       -2.05224689471564
H           -8.82509620264466        3.77417782721613       -0.80139024939956
H           -7.26243148928548        4.10122142756117       -1.55044608011494
N           -7.20959996658932       -0.60798019165793       -0.51806939515695
H           -8.08977750044946       -0.09413972673301       -2.00251230535915
C           -8.09453954188413       -1.74698828850789       -0.46619054737582
H           -7.54759154129854       -2.69079126364187       -0.34583435201091
C           -9.11309926383140       -1.61751441449358        0.67260348313349
C           -8.86323978291265       -1.77439533019075       -1.79593806511738
H           -9.64807610608431       -0.67346219962542        0.58745052431343
H           -9.82504759402954       -2.43584571501702        0.61316764875804
H           -8.60149667164586       -1.65102762799631        1.63127515979007
O           -8.72502190191373       -0.66022310299583       -2.50396366605641
O           -9.53957116544536       -2.70203723833012       -2.14416655389880
