42
 energy: -62.486133512070 gnorm: 0.000480044652 xtb: 6.7.1 (edcfbbe)
N           -1.55038921246543       -1.90544884964605        0.35500879790789
H           -0.59761398297081       -2.11908546464471        0.08531827737974
H           -2.07538439031266       -2.77583811912436        0.32860606778153
H           -2.57353066503137       -0.97689938601052        1.69752377517003
C           -2.15018740682896       -0.94514347246564       -0.57253309353896
H           -1.42961679279913       -0.12797586320589       -0.70557236495803
C           -2.52301116883434       -1.51920429834780       -1.93690640134291
C           -3.36811572432046       -0.35087918705079        0.11584648988342
H           -3.20924921082432       -2.35431873123504       -1.81427245078634
H           -3.02597127095954       -0.75493557046554       -2.51851260953513
H           -1.63478964304985       -1.85973173083703       -2.46558341954493
O           -3.37699393978371       -0.47137733053901        1.46190691429706
N           -4.25919130467164        0.20976711403322       -0.56715589771135
H           -6.93855270624432        0.37504759252800        1.91514597568647
C           -5.40807192403629        0.80371910491831        0.07300319737484
H           -5.17470004235157        1.10580436978153        1.10701285386632
C           -5.82533366952242        2.01995036559329       -0.77043108721679
C           -6.53638399775368       -0.19996879843692        0.09343508851300
H           -4.97416938496557        2.70101808973696       -0.82420689814700
H           -6.01761397034974        1.64020787385668       -1.77398065323447
C           -7.05611251045758        2.77069628637145       -0.25245633738508
O           -7.30159808110842       -0.22131934767971        1.24898836246625
H           -7.86208892361612        2.05284865468058       -0.06339552966337
C           -6.75525781464600        3.53399216900320        1.03716223467405
C           -7.54468418044654        3.74433151673586       -1.32327703923260
H           -5.98804939475405        4.28414471337351        0.85703660552329
H           -7.64976453573721        4.03949017852797        1.39426700313302
H           -6.40304680070570        2.87574094534334        1.82869660266108
H           -7.81756376981166        3.20864492178957       -2.22871250342627
H           -8.41723934427361        4.29016974349236       -0.97203949823756
H           -6.76463087711562        4.46199205466911       -1.56806178666463
N           -6.73625444395251       -0.93197593836095       -0.89696058043270
H           -8.89648414857268       -0.41423683998279        0.41975996456374
C           -7.74898373745013       -1.94200728391319       -1.05171928758878
H           -7.50107282440502       -2.45822249020689       -1.98648677602141
C           -7.80570421193433       -2.96791905368283        0.08915674057453
C           -9.15225508438995       -1.34468416350237       -1.24224286068585
H           -8.11653512225720       -2.50863289762398        1.02501915431424
H           -8.50842933199683       -3.75655983781504       -0.16803572957372
H           -6.81943837010896       -3.40471693874342        0.22988228488440
O           -9.56685441622389       -0.51864567420672       -0.28193895941849
O           -9.84527291772471       -1.61986452619823       -2.17935955347836
