42
 energy: -62.486133516267 gnorm: 0.000478955922 xtb: 6.7.1 (edcfbbe)
N           -0.70794895234295       -0.06230271152794       -0.28031938868139
H            0.13031206480875       -0.35883478178343       -0.76538511070609
H           -0.62015289373322       -0.35333133307081        0.68927209790729
H           -1.82983785494885        1.51486329577878       -0.14841789877050
C           -1.89962845111190       -0.66427483774057       -0.87521993982603
H           -1.83673163115933       -0.49423106165126       -1.95872840035146
C           -2.05980239408507       -2.16011200760869       -0.61297528141039
C           -3.09333559165482        0.14754998083057       -0.38491558756997
H           -2.20554368583112       -2.34486860192682        0.44898990722247
H           -2.91771183084978       -2.54398811934750       -1.15464984113388
H           -1.17095495543012       -2.69327492333961       -0.94523612574209
O           -2.80158576944266        1.41978983767501       -0.07949240560024
N           -4.21565545671139       -0.40871530296882       -0.29031471049656
H           -5.07607031420515       -1.99045372615889       -0.23452060325624
C           -5.46441055740390        0.23729743591519        0.06902331559075
H           -5.45876483705173        0.46292568469008        1.14371911724743
C           -5.66603407053001        1.54066396147164       -0.72360771295423
C           -6.52769116790152       -0.82752769739628       -0.18024744575676
H           -4.84142165041038        2.20162194270920       -0.45233973288368
H           -5.56499460505180        1.29840650519455       -1.78467590700873
C           -6.97617557827223        2.30613421566282       -0.51713946475505
O           -6.05407528381247       -2.07992425836133       -0.23349194130390
H           -7.77554964141018        1.76997874765754       -1.03083119011610
C           -7.33942308679722        2.45040333079429        0.95742517992658
C           -6.84403060870710        3.68599647830850       -1.16182329755740
H           -6.52658869424695        2.92360767313299        1.50527012714597
H           -8.22742143990100        3.06910516885421        1.06390514824072
H           -7.54487245069370        1.47991545774539        1.40096508119463
H           -6.56836984283461        3.59592634935854       -2.20992805280566
H           -7.78775628409408        4.22223884086223       -1.10210862251971
H           -6.08143418466868        4.27456932651799       -0.65529296279298
N           -7.74179978045643       -0.53287878207157       -0.35415611567442
H           -9.20779175003355        0.62388330531865       -0.28273894197732
C           -8.71983052866074       -1.57342758547107       -0.59861862706489
H           -8.40083709523027       -2.24343932705029       -1.40629117818276
C           -9.00245681426914       -2.41302745066300        0.65474046589477
C          -10.03383574403690       -0.89170936878313       -0.99458721126013
H           -9.28983785830723       -1.76455928007632        1.48066982782944
H           -9.81365424797133       -3.10549104940168        0.44778743814534
H           -8.11325040334366       -2.97176709401840        0.93365605727097
O          -10.08960482285289        0.39000006062528       -0.64917942787515
O          -10.93963051520074       -1.46876418349905       -1.52925562902015
