42
 energy: -62.486132276226 gnorm: 0.000626222309 xtb: 6.7.1 (edcfbbe)
N           -1.54431394909172       -1.52615669475133        1.10630016277247
H           -0.55182418311800       -1.71352302240431        1.03648813263945
H           -2.01941643278416       -2.41950966810947        1.20298288405348
H           -2.77817085213756       -0.38907640033356        2.06079280121611
C           -2.03292466032111       -0.82841676009443       -0.08120556515623
H           -1.33650672414847       -0.00400577559283       -0.28452926694117
C           -2.15641456388363       -1.70071465450681       -1.32965717441997
C           -3.36510951172082       -0.19249959179615        0.29222740709336
H           -2.86594328366000       -2.50645596099872       -1.15562007541505
H           -2.51112721307891       -1.09994246252561       -2.15974852217921
H           -1.19040434269154       -2.13011505026420       -1.58801557219531
O           -3.55139227371745        0.00025257579009        1.60487397285140
N           -4.17270913854153        0.13520398056422       -0.61587405525598
H           -5.40251307338451       -0.72990113838823       -2.10600788114739
C           -5.45704040625310        0.73073422767650       -0.29663137387945
H           -5.54445383585540        0.99550593240803        0.76146758703982
C           -5.65430016097499        1.96937373077096       -1.18374984480567
C           -6.48895257714390       -0.32170358777388       -0.62637950732912
H           -4.88064242888758        2.69535090593731       -0.92533710073839
H           -5.49305390424012        1.67378326314664       -2.22390439021418
C           -7.03566189977176        2.61849298343853       -1.05022761548135
O           -6.27147164527434       -1.00014512373602       -1.76593455948910
H           -7.80001385275760        1.85881828390696       -1.24574032350252
C           -7.26299537642184        3.18370142995044        0.34919416907212
C           -7.17643943615863        3.72775853255984       -2.09166318819565
H           -6.49319671103899        3.91326914287180        0.59274399436171
H           -8.23092103208365        3.67610121047047        0.40029068698883
H           -7.24677090868269        2.39588872743027        1.09662923300279
H           -7.04976491998496        3.33436390807450       -3.09781682014980
H           -8.15987402643554        4.18630245837389       -2.02600959074704
H           -6.42677386024706        4.49909642311029       -1.92713978676256
N           -7.45325166139045       -0.52932434725619        0.15573020978776
H           -8.54888061744973        0.09348819057961        1.45318622042485
C           -8.46327454199014       -1.52532882158619       -0.12926333016068
H           -8.75602478435298       -1.52039335901541       -1.18704980318563
C           -7.98815870150119       -2.93326703993232        0.24441356003084
C           -9.69447487204293       -1.18105975571544        0.72293816678872
H           -7.62872999917110       -2.94180906157930        1.27160387167165
H           -8.81837482141091       -3.62775572929149        0.15081262068698
H           -7.18207894583702       -3.24047303537165       -0.41743566211116
O           -9.47899120023326       -0.20336196120232        1.59391309717560
O          -10.74285392913152       -1.75457272221594        0.61728724368394
