42
 energy: -62.486132264329 gnorm: 0.000628394864 xtb: 6.7.1 (edcfbbe)
N           -2.12414328525755       -1.89874365300748        1.26622974744906
H           -1.16029795977292       -2.20720143466229        1.30308131592356
H           -2.70844193491095       -2.72764866747714        1.19709432174940
H           -3.36689205736778       -0.73487567837176        2.17036975495335
C           -2.35504381124162       -1.03184750225965        0.11262960630263
H           -1.54760087592482       -0.28853265405621        0.09589329815151
C           -2.40028644439631       -1.75636667317256       -1.23151174642680
C           -3.64739374622536       -0.27206688708607        0.37600623489204
H           -3.19447014776556       -2.50046312032415       -1.22830010838730
H           -2.60342575647184       -1.04014674954134       -2.02025298181772
H           -1.45146485243392       -2.25111177272343       -1.42954016361419
O           -4.01698500438302       -0.20858755337089        1.66268861355802
N           -4.26665027775008        0.25371934876564       -0.58588944380119
H           -6.04005900632594       -0.05164935982100       -2.44686442399332
C           -5.50996178925044        0.96948877535558       -0.34934071411160
H           -5.60254740723818        1.28084071603991        0.69657517189423
C           -5.57756325571179        2.18053951563003       -1.28576133439719
C           -6.58844433135386       -0.05072370564963       -0.62745196104178
H           -4.85681097020094        2.91900923794361       -0.92956340190505
H           -5.25113316282853        1.87780195550129       -2.28518529508376
C           -6.96793094344766        2.82132353288003       -1.37027104597165
O           -6.71382781375213       -0.47510644431102       -1.89875790245183
H           -7.68148671897824        2.07648907744166       -1.74109995586518
C           -7.44891043788635        3.30452578382903       -0.00429253522431
C           -6.93082877689580        3.98567785945205       -2.35898999856028
H           -6.72445255282273        3.98758609741935        0.43401965803372
H           -8.39600369369032        3.82920106709464       -0.10630688451553
H           -7.59736892735003        2.46865082161356        0.67386685877075
H           -6.60382975906301        3.65221367086611       -3.34163320702315
H           -7.91809879963444        4.42944344678512       -2.46054494118893
H           -6.24395574463475        4.75444230977378       -2.01143662052862
N           -7.24054086766549       -0.52847765945030        0.33740622862790
H           -7.72334763118451       -0.48133126221124        2.08374949970011
C           -8.21942823694770       -1.57805262098134        0.16217270251561
H           -8.90354455467440       -1.36269818739077       -0.66792583732125
C           -7.55914227525848       -2.93999651739956       -0.08148486270783
C           -9.02818370057697       -1.66167499713105        1.46583260870974
H           -6.83866587475926       -3.14671356312330        0.70792856320114
H           -8.32209061734365       -3.71338926255606       -0.07884177766771
H           -7.04716028920278       -2.93871694008005       -1.04046903269196
O           -8.51047212752293       -0.94565534316057        2.45551014230914
O          -10.01730483330376       -2.33120082716339        1.57959689757126
