42
 energy: -62.486132297320 gnorm: 0.000622472176 xtb: 6.7.1 (edcfbbe)
N           -0.80078280548706       -0.73261924382709        0.03312683367673
H            0.07577416243844       -0.78261521886480       -0.47154884147602
H           -0.89387266556902       -1.59378255246547        0.56482441683287
H           -1.77481089781384        0.49710635348297        1.13896732624293
C           -1.92937988449319       -0.59350613291945       -0.88682600668743
H           -1.65624721507839        0.16757044703565       -1.62815240452294
C           -2.32930746973669       -1.87681132121269       -1.60978010850725
C           -3.09285724823808       -0.01996861873629       -0.09137002979116
H           -2.55936688431306       -2.65804680935341       -0.88829770859348
H           -3.21632484694438       -1.69001969972743       -2.20469318369305
H           -1.52320336366124       -2.21831658917799       -2.25570890820290
O           -2.74424605434877        0.60075963685169        1.05446020917902
N           -4.26399972515235       -0.14305627248866       -0.52822967692865
H           -5.33638373023086       -1.38740216041759        1.68691985071710
C           -5.39555433150182        0.45336109020221        0.15504364001485
H           -5.12520473265133        0.80105120438526        1.16496257646657
C           -5.89546670433331        1.63014023832070       -0.68955509042797
C           -6.41209040581906       -0.65871532254409        0.27404539720748
H           -5.07031214949356        2.33827349122767       -0.79399512315887
H           -6.13086838081739        1.23964786520774       -1.67962361908941
C           -7.11620668299661        2.35266793975060       -0.11135830047323
O           -6.17042812737280       -1.57600338841215        1.23899167493873
H           -7.87450586930284        1.60602678051066        0.14055156662316
C           -6.76207704001173        3.13949487835530        1.14889299205435
C           -7.69478130360750        3.29384287898537       -1.16645635019166
H           -5.98812509674060        3.87350560043393        0.93386473355519
H           -7.63757008143387        3.66574575484493        1.52220920696749
H           -6.40417381428850        2.48405819354064        1.93861648735069
H           -7.99308868710657        2.74153451091397       -2.05398704801230
H           -8.56790609266375        3.81141965623271       -0.77641315096574
H           -6.95657005583127        4.03891041593747       -1.45592023456816
N           -7.38186343179568       -0.73751412537171       -0.51979059797003
H           -8.14728972369081       -0.21361426747507       -2.06026090610246
C           -8.33893342999407       -1.81713329047876       -0.47707704684344
H           -7.85099726492721       -2.79260059893948       -0.35733943982349
C           -9.35581867316957       -1.63079407573557        0.65454833200441
C           -9.09452609631536       -1.79787951671852       -1.81602842531520
H           -9.82889378530551       -0.65413356727967        0.57265539458302
H          -10.11804724692495       -2.40120212772631        0.58119915666948
H           -8.85733081583580       -1.70483664793430        1.61775945904327
O           -8.82759986368892       -0.72975053525314       -2.55615435966590
O           -9.86495273991734       -2.65682067128424       -2.14413759539033
