42
 energy: -62.486133514406 gnorm: 0.000479487546 xtb: 6.7.1 (edcfbbe)
N           -2.12268490407131       -2.38138769858120        0.47111620179766
H           -1.16870208277919       -2.71868642349087        0.42180569208811
H           -2.70528963031664       -3.04395568377976       -0.03426603419393
H           -3.42440925418466       -1.67965857849434        1.73935897754021
C           -2.23737857597612       -1.06117279493572       -0.15160257510611
H           -1.44077675069747       -0.43434993293519        0.27128787156541
C           -2.13212554071272       -1.05790246200653       -1.67384851755768
C           -3.55716451381328       -0.46875389590091        0.30520524695211
H           -2.90890444272610       -1.68838059114920       -2.10093535495727
H           -2.27925247777906       -0.04813999903240       -2.04072164982222
H           -1.15692524831057       -1.42378007399726       -1.98964662651255
O           -4.02808491685738       -0.95782444411425        1.47439555439817
N           -4.13188889696591        0.41544789299679       -0.37656254868812
H           -6.69577875136370        0.25085350780310        2.04153800429676
C           -5.38107271049583        0.97248470619912        0.09903325973160
H           -5.24001081548773        1.38681191531886        1.10880938385587
C           -5.80129843941073        2.07246018330777       -0.88432711113615
C           -6.44487401709445       -0.10098383976644        0.14355558276147
H           -4.99169622488118        2.80111757562618       -0.94274340504602
H           -5.89565988025936        1.59001826536114       -1.85703095464200
C           -7.11458812732159        2.77364435323319       -0.52589870922216
O           -7.12923772181221       -0.24212458650669        1.33475121849162
H           -7.88274521907478        2.01450453029405       -0.33904658315317
C           -6.97167436865270        3.64912554311536        0.71830222879864
C           -7.57442695349197        3.62568950620237       -1.70710718946295
H           -6.20809072218489        4.40754847828089        0.55826130918682
H           -7.91196881139545        4.15060879989470        0.93569307837001
H           -6.69466190693802        3.06579142911112        1.59353846365844
H           -7.73329384812558        3.00443650382809       -2.58463787218166
H           -8.50795457398057        4.13166805681918       -1.47213241581176
H           -6.82535058356316        4.37740969630151       -1.94662664148418
N           -6.65319634902881       -0.79233932488885       -0.87647059088522
H           -8.76261222131988       -0.49144202158315        0.58410343786543
C           -7.59519964970304       -1.87124519838910       -1.01682316086074
H           -7.36702828044002       -2.32924209161562       -1.98651484334985
C           -7.50718824466891       -2.94395113451393        0.07825915015169
C           -9.04636381337492       -1.37403923586269       -1.10083130944939
H           -7.80244897689279       -2.55076477703927        1.04844354953831
H           -8.15694973786420       -3.77682983019631       -0.17867667414617
H           -6.48253300168125       -3.30220994774764        0.14989493802125
O           -9.46176162859832       -0.61896142060441       -0.08403053956077
O           -9.77293841041857       -1.66352094779796       -2.00793636930831
