42
 energy: -62.486133520738 gnorm: 0.000478856982 xtb: 6.7.1 (edcfbbe)
N           -2.02476158591467       -2.35929096948662        0.13876181035549
H           -1.31253191638253       -2.40428023183190        0.85539299013756
H           -1.73990750124560       -2.95079016641081       -0.63173315047216
H           -3.79843982433066       -2.39258587583565        0.65692196725728
C           -2.27277374580155       -0.98605329571174       -0.30951249854268
H           -1.59048707533370       -0.27597907087228        0.17006158197239
C           -2.15050927299561       -0.84284632409230       -1.82487864574982
C           -3.69837795642778       -0.61358106050486        0.10553786226545
H           -2.83430876855287       -1.52879371270087       -2.32096471055325
H           -2.41150974453256        0.17174613896822       -2.10799294480964
H           -1.13316024124073       -1.05544948069815       -2.14923405678140
O           -4.40012339290151       -1.61167995566012        0.65339032100868
N           -4.07760077256247        0.56894475016262       -0.07807941143109
H           -6.11084132148623        0.25626468203378        2.37352237021143
C           -5.41664115419282        1.06121971968018        0.16199280027853
H           -5.33853673155376        1.74973291739333        1.01675306635335
C           -5.79114551104765        1.86432715304635       -1.09395763596791
C           -6.43943960506082       -0.00574306364255        0.48586946108127
H           -4.99356342294586        2.59290100481101       -1.24667708338263
H           -5.78489207991661        1.16976788954891       -1.93398031276529
C           -7.14317884248521        2.58204433263034       -1.05333198320824
O           -6.70124521192190       -0.23983475135185        1.79426949421028
H           -7.93671305721094        1.82799241197197       -1.10079114193110
C           -7.33416211375495        3.41406497630502        0.21264498413528
C           -7.26965430058137        3.47221191321900       -2.28925806786983
H           -6.48879423278932        4.08314111583463        0.35937599454573
H           -8.23598726503365        4.01663122668299        0.13040714607541
H           -7.43936220361144        2.78210939670789        1.09111898761865
H           -7.12366044072194        2.88997488945247       -3.19566309941617
H           -8.25482399556734        3.93106708568725       -2.33045107813150
H           -6.52352716173097        4.26327788126575       -2.26429559341334
N           -7.00917623039680       -0.62978219819963       -0.45017705963190
H           -8.91923523337253        0.46596242812077       -0.04495470009862
C           -7.95155300056358       -1.69616972608084       -0.17378005090472
H           -8.42873661164734       -1.92216276047784       -1.14063339797595
C           -7.27850164526727       -2.95975266685893        0.35692705209778
C           -9.08321733989496       -1.26180219534758        0.76511605976312
H           -6.75521084132419       -2.73438092918594        1.28129968475865
H           -8.03647954308413       -3.71197384054406        0.55508593683062
H           -6.56683817493835       -3.33440817080819       -0.37349227346347
O           -9.47946069237119        0.01099302692187        0.60450953381645
O           -9.62712146458206       -1.98906008997534        1.54381490282230
