42
 energy: -62.486133512495 gnorm: 0.000479984557 xtb: 6.7.1 (edcfbbe)
N           -2.67781410216267       -1.81641830508902        1.82716397867128
H           -1.80265534910989       -2.31978731879747        1.91406351337661
H           -3.42619074386392       -2.50653427863051        1.82978245417099
H           -3.63042214154115       -0.26556477965868        2.53229547897939
C           -2.71882903608773       -1.06066116738562        0.57561334257832
H           -1.82012698929732       -0.42758657526413        0.55109118247799
C           -2.76870068283974       -1.91117154324874       -0.69131303947062
C           -3.90937910434962       -0.12389740431253        0.68300569484874
H           -3.56757119115050       -2.64467672084723       -0.61900132291483
H           -2.96162077270958       -1.27242930053538       -1.54600436483953
H           -1.82465392716547       -2.43331622585366       -0.83280108587516
O           -4.20161969804893        0.26253061568540        1.93934248056556
N           -4.54756220391001        0.22533865603652       -0.34285377351872
H           -7.97958886232213        1.84319409547691        0.29816640560038
C           -5.68642245190690        1.10803805838711       -0.21686753778704
H           -5.56239304074140        1.81026260092890        0.62170761112863
C           -5.77841910748353        1.86152811633937       -1.55821194064723
C           -6.90848582086970        0.26199245063088        0.06844840678575
H           -4.79350770007897        2.30170273576132       -1.72835525587139
H           -5.93227921100906        1.10836657156369       -2.33284966599604
C           -6.83747024662977        2.96027045179257       -1.69799243428837
O           -8.08394490397215        0.88390663873527        0.30305014552061
H           -7.83911517004280        2.52340404673248       -1.61321301362050
C           -6.66880776760479        4.06282158220862       -0.65207245591719
C           -6.73148220710618        3.56848597212050       -3.09735486890771
H           -5.68058466880131        4.50944095625767       -0.73928556902856
H           -7.40984109226600        4.84430693597319       -0.80684377521114
H           -6.77998217567438        3.69434120569237        0.36647883178854
H           -6.86399735716462        2.80417471541322       -3.85910457915561
H           -7.49404085223911        4.33075903751710       -3.24000947380720
H           -5.75595090131013        4.02818560352872       -3.23877264356304
N           -6.76284383692561       -0.98225556529667        0.16228574934409
H           -5.58984600113834       -2.23036448409630        0.40273305402390
C           -7.79359276775816       -1.91092741675002        0.54111739975701
H           -8.43903468834191       -1.51726593443864        1.33714061838638
C           -8.66326157910614       -2.31754261389997       -0.65217743084241
C           -7.05497887847146       -3.15520249591214        1.06709938556824
H           -8.03296467440026       -2.66174058470152       -1.46961307334987
H           -9.33161091969931       -3.12019556636078       -0.35310784467694
H           -9.24821349324580       -1.46569459033990       -0.99027197429539
O           -5.74321143191354       -3.10670580577103        0.85048681251023
O           -7.60317351998090       -4.07513805340512        1.60593947342099
