42
 energy: -62.486133519130 gnorm: 0.000478875636 xtb: 6.7.1 (edcfbbe)
N           -0.95759732560042       -0.53781238469503       -0.21941220520292
H           -0.21338800102425       -1.18313953086259       -0.45544289761511
H           -0.82496344926041       -0.26031025374286        0.74954694206340
H           -1.84207555691836        1.01401750707486       -0.92561929034253
C           -2.26639792731799       -1.17182683950509       -0.37471878832927
H           -2.27610781392342       -1.65021117913358       -1.36338817678963
C           -2.60745836475179       -2.20968861574448        0.69011802194234
C           -3.30284180274198       -0.05201980096832       -0.42131952828078
H           -2.57084309085207       -1.75603948760599        1.67828810649527
H           -3.61351880506368       -2.57914554171309        0.52432694299669
H           -1.90442163492015       -3.03945533572470        0.65261964340026
O           -2.81069516264653        1.12977680133083       -0.84531927380493
N           -4.48237856555281       -0.31542235883749       -0.09132178973808
H           -6.00172855871278       -0.05719202640870       -2.38466028267292
C           -5.61861478706012        0.57503402749203       -0.08229156661295
H           -5.84528727097298        0.74882712971920        0.97544503622912
C           -5.49619538010206        1.92003908359082       -0.81461786493535
C           -6.75411732178656       -0.26042167456281       -0.63974422265684
H           -4.76192508086941        2.53296291374228       -0.29059094728139
H           -5.10806704398072        1.75847785039712       -1.82516912771136
C           -6.82406884830279        2.68342837749337       -0.90278226913337
O           -6.75375709914872       -0.49510839471934       -1.96675092003908
H           -7.55385542034040        2.07274116220883       -1.44709914972231
C           -7.39525290087819        2.98905705254343        0.47984991499813
C           -6.60801566879279        3.98066460877909       -1.68114276514085
H           -6.65653630615266        3.50282386450147        1.09141176438500
H           -8.26855810252014        3.63043953353525        0.38800139095978
H           -7.70030695369959        2.07769274267100        0.98702543257463
H           -6.21179149940220        3.77830246350856       -2.67406755639723
H           -7.54626425464570        4.51881440150039       -1.79167411529076
H           -5.90398198540297        4.62246540894601       -1.15585647055170
N           -7.60424271438741       -0.74976106724568        0.14797909855468
H           -8.42311559947839       -0.77393629882702        1.77352565989064
C           -8.67874625017992       -1.59743611051673       -0.32007480860633
H           -9.12308320669913       -1.22311256053236       -1.25069142112483
C           -8.19814437915269       -3.03577582034785       -0.54311989282529
C           -9.75425825045538       -1.61402567822942        0.77541738665072
H           -7.71642980722226       -3.40872411204455        0.35835112244145
H           -9.04985196841046       -3.66663880500011       -0.78151362417488
H           -7.48458378620163       -3.06351119689951       -1.36261412028221
O           -9.34219033573891       -1.09478963898125        1.92626419053579
O          -10.85053296934896       -2.07208602935719        0.61176747663053
