42
 energy: -62.486123742902 gnorm: 0.000705864036 xtb: 6.7.1 (edcfbbe)
N           -1.69621658097121       -1.49529660914212       -0.82589520963767
H           -1.61641393797099       -1.83482108314465       -1.77471729148785
H           -1.34706794696099       -2.21632456750615       -0.20463972930381
H           -1.20369095990969        0.00354736805595        0.08468232903991
C           -3.07473641926730       -1.13159945337741       -0.47838227773226
H           -3.68675395557861       -1.12149154361372       -1.38323133656313
C           -3.67889361387099       -2.10192164243389        0.54018164103950
C           -3.04411926971294        0.27569208791478        0.16951691557455
H           -3.06769478068308       -2.11709038880092        1.44146240649517
H           -4.68136683651604       -1.79084997232319        0.81791531925629
H           -3.72590661546042       -3.10814905331107        0.12585686232491
O           -1.80757874284391        0.67080675077077        0.48419975666556
N           -3.99044202190854        1.00131622925372        0.56113522085910
H           -5.28536382859909        0.27329165390838       -2.04566561674197
C           -5.37579561693992        1.11563151961108        0.24388499511160
H           -5.86417924142085        1.32362107874161        1.20345098107148
C           -5.52934296952960        2.35873145181140       -0.65895786761224
C           -6.12312514740097       -0.05828406426848       -0.35698015657208
H           -5.09580840630341        3.19796350078205       -0.11449680072301
H           -4.92373463196293        2.22585483803105       -1.56251492591375
C           -6.97428586425400        2.68834677451417       -1.05231285509089
O           -5.85761868411244       -0.39332522843960       -1.64303957127164
H           -7.40275945701640        1.84483271431219       -1.60651436034204
C           -7.84814260311931        2.94746968619443        0.17209026433006
C           -6.97475952158999        3.91168072528874       -1.96841553429003
H           -7.39602203091996        3.70539964508883        0.80737557088796
H           -8.82877051004115        3.29968557735108       -0.13864088746895
H           -7.98640321795571        2.03940545255640        0.75237853178601
H           -6.36518834393085        3.73847908996664       -2.85301900206203
H           -7.98643113037993        4.14284332932202       -2.29211536421810
H           -6.57666120964825        4.77592323676953       -1.44184398804550
N           -7.03610906114729       -0.60998396913186        0.31347822654252
H           -8.16381220833865       -0.60432444148630        1.76365553529754
C           -7.88073577850235       -1.64040228475893       -0.24834087816483
H           -8.18806134187065       -1.38998372893599       -1.27224734277803
C           -7.20494373696648       -3.01536303329578       -0.26594909909438
C           -9.13524412180029       -1.73224653786099        0.63388711474525
H           -6.85177112492586       -3.27243494618308        0.73079405489302
H           -7.92739748634785       -3.75983977035158       -0.58855560614975
H           -6.36390780835347       -3.00754354995665       -0.95457794395393
O           -9.03788919590964       -1.05542324258633        1.77188600682665
O          -10.09990289800234       -2.37437677168669        0.32692809356279
