42
 energy: -62.486133501958 gnorm: 0.000480055122 xtb: 6.7.1 (edcfbbe)
N           -1.92687160766026       -1.38118885384800        1.35972569388850
H           -0.98808327971671       -1.75310570378472        1.28165617008484
H           -2.51252896935383       -2.11152695795345        1.75614249273584
H           -2.90369766152936        0.16074028647194        1.99716983996351
C           -2.44539365422148       -0.99192047113117        0.04926775111034
H           -1.67847837502363       -0.36982253907859       -0.43101743184571
C           -2.79905865422748       -2.15810775063693       -0.87075125962586
C           -3.65078600720059       -0.09710569261166        0.29706205976221
H           -3.54829114124301       -2.79043703542602       -0.39927521335187
H           -3.21264036744574       -1.77437894490421       -1.79677977711039
H           -1.91496893807199       -2.75439544170200       -1.08794328767955
O           -3.66502118628788        0.51206626839210        1.49388852042279
N           -4.52715509068314        0.02530069037125       -0.59600440652130
H           -6.84569552500514        0.37093746752797       -2.49120341509002
C           -5.69005200034066        0.86980984336235       -0.38455843674411
H           -5.74599553002421        1.20830840627380        0.65699624656339
C           -5.62083610835816        2.07565765539240       -1.32641147246871
C           -6.85871780355481       -0.06092315648391       -0.63234292079916
H           -4.75547500201800        2.67094997657294       -1.02628154621315
H           -5.41705288403685        1.72763272823858       -2.34491061829690
C           -6.87101227182711        2.96524036060469       -1.31018051431918
O           -7.34332575824309       -0.18657463102540       -1.87966187031056
H           -7.75623402987258        2.35818963520081       -1.53162680534694
C           -7.07429715818988        3.61802778700060        0.05510389460000
C           -6.74217152512873        4.03880652417462       -2.39050291743900
H           -6.18897503819664        4.18070154893271        0.34329098096538
H           -7.91897539717224        4.30220945468094        0.02005794438874
H           -7.27615514423280        2.87248554815912        0.81944435124181
H           -6.62155909383592        3.59166594976201       -3.37529156785511
H           -7.62893668963392        4.66751705348871       -2.40893937533217
H           -5.87880188132915        4.67064342790480       -2.19344706255483
N           -7.25294324985867       -0.76650211789227        0.33428415116010
H           -7.26882817888310       -1.09455568440927        2.10047002889714
C           -8.27926441928739       -1.77452048785437        0.19406484125335
H           -9.16487382253891       -1.38218915877334       -0.32140263381855
C           -7.77583396385796       -3.01020803598653       -0.56023569630330
C           -8.68395551436300       -2.20301584730093        1.61353348239693
H           -6.86426309111630       -3.38025119558122       -0.09507759379696
H           -8.53569526850008       -3.78567034208244       -0.52232004097180
H           -7.56630103988998       -2.75562022638374       -1.59557738050525
O           -7.91327342276833       -1.68421937274623        2.56152251580858
O           -9.59371550957157       -2.95267676910803        1.83699739864635
