42
 energy: -62.486133494499 gnorm: 0.000489072134 xtb: 6.7.1 (edcfbbe)
N           -1.03194040846341       -1.24743073575555        0.04375608250141
H           -0.51525600112639       -0.46870127469786        0.43953440230489
H           -0.37215326940007       -1.84773637786234       -0.43705047510371
H           -2.48801726053887       -1.48893821098483        1.25021347667296
C           -2.06454361598866       -0.77069528624566       -0.87608054532181
H           -1.75894151106449        0.09222875345528       -1.48222749627539
C           -2.50191607096930       -1.90393409477549       -1.80514872197560
C           -3.26264340418552       -0.36441722921892       -0.03691309662630
H           -2.81039490970173       -2.76994885031070       -1.22297167915132
H           -3.33748170138899       -1.57182393189130       -2.41399106716760
H           -1.68238690952943       -2.19489629442904       -2.45881023401897
O           -3.32029419869924       -0.97449472951589        1.17247140806194
N           -4.07441707250044        0.47434112223876       -0.49046342248558
H           -5.14108968095469       -0.87719819542605        1.91166742437873
C           -5.30695574181205        0.86377370717731        0.17062942394191
H           -5.06770522300842        1.29308259393837        1.15688464784378
C           -5.96366443787210        1.92327349097300       -0.71750758947919
C           -6.19725889959368       -0.34046257778720        0.40192123450416
H           -5.23612780366598        2.72479951291472       -0.85583988566808
H           -6.14152279545420        1.46553740560425       -1.69015064813699
C           -7.27243248570043        2.50446923689941       -0.17626689675081
O           -6.00762258878804       -1.06588597821354        1.51958103467586
H           -7.96996040856128        1.68155041669639        0.00465286325267
C           -7.06168416035211        3.26359497505970        1.13246018370495
C           -7.88106200507616        3.43335666635475       -1.22542698956501
H           -6.29937652003114        4.03047130864668        1.00981366979175
H           -7.98645227297233        3.74745234474203        1.43862130741252
H           -6.75614574677283        2.59495704681278        1.93342940867021
H           -8.06269742116427        2.89757660363899       -2.15369873509055
H           -8.82660707804845        3.83952475659083       -0.87395248822250
H           -7.20814222897317        4.26271055044372       -1.43308320307650
N           -7.07588666758803       -0.62688078689661       -0.45475537078034
H           -7.71487208462054       -0.45783846434652       -2.13386523844700
C           -7.93742637803769       -1.77601009282954       -0.31375295425940
H           -7.40323384759565       -2.65050065506133        0.07956946233047
C           -9.12759790556638       -1.47090498769140        0.60329447592463
C           -8.47975549789199       -2.10254075608618       -1.71307123133415
H           -9.65754141845478       -0.59048132878427        0.24468655744261
H           -9.80714788832354       -2.31842419597475        0.60516764440029
H           -8.77547901346218       -1.28617261010898        1.61522290856638
O           -8.24818881238052       -1.14427873323804       -2.60187867167866
O           -9.07216791042679       -3.11412996017555       -1.96773578995239
