42
 energy: -62.486133522426 gnorm: 0.000478865639 xtb: 6.7.1 (edcfbbe)
N           -0.96929674782814       -0.89934549239379        0.63465598073111
H            0.00907395630082       -0.77997725544481        0.40545551446271
H           -1.11443013730770       -1.88006360133129        0.85742478420753
H           -2.28141725875791       -0.08897260399611        1.74502106638705
C           -1.82873076341225       -0.50244839475560       -0.47960289855698
H           -1.41115376410215        0.41323526044127       -0.91470382825667
C           -1.97684786117389       -1.55521455352412       -1.57754676247211
C           -3.18451496754536       -0.12176895396973        0.10404085159547
H           -2.33244404559310       -2.49485856821095       -1.15607745096543
H           -2.69624613779312       -1.20877922280036       -2.31240736426314
H           -1.02139040958313       -1.73303577394472       -2.06632895311657
O           -3.19534855952305        0.07780207127893        1.43240463773663
N           -4.17075959418202        0.01112810090983       -0.66819399930554
H           -4.87309524726920       -1.92786405482181       -0.23962391085648
C           -5.47516244493066        0.38623006977027       -0.16515582906827
H           -5.42701671356599        0.63028739623594        0.90854565962265
C           -5.99043543696608        1.60362762833812       -0.94417686158374
C           -6.40107388492322       -0.80726982645564       -0.29398083696197
H           -5.13268146191139        2.22910290327380       -1.19933352820672
H           -6.43399067038388        1.25143742454312       -1.87540195204770
C           -7.00968064212743        2.43486339016589       -0.15581076506873
O           -5.83606978221941       -2.02590523511726       -0.18821296464254
H           -7.68561951351434        1.74848094357608        0.36239253120228
C           -6.31295386018147        3.31431875975975        0.88122768908305
C           -7.82688773693982        3.30458476536605       -1.10886444851144
H           -5.66900499621583        4.04071647160650        0.38906760985577
H           -7.04657759046021        3.85490817782306        1.47460353832625
H           -5.70239801866371        2.72071591910342        1.55745170999442
H           -8.37425019303184        2.69412268543474       -1.82253338612141
H           -8.54391037653111        3.90466405108280       -0.55389502369521
H           -7.17307204326929        3.97701479488395       -1.66058994598501
N           -7.63040232576002       -0.62881517349200       -0.49634457243770
H           -8.95293065784524        0.43699518588792       -1.14217456987310
C           -8.54977562648998       -1.73587037030944       -0.62350323829329
H           -8.11312323350965       -2.57179371781762       -1.18530141459447
C           -9.00403373365095       -2.24599029898244        0.74824976071899
C           -9.78063789584803       -1.21782547156109       -1.38238590592824
H           -9.39839294123708       -1.42158534983098        1.33901410647595
H           -9.78159802180182       -2.99269770564289        0.61439886552228
H           -8.16253767160907       -2.68909973186318        1.27511441076584
O           -9.79098693852700        0.10035503854451       -1.53861414199606
O          -10.65438531085626       -1.93743554205728       -1.77936914135480
