42
 energy: -62.486133476873 gnorm: 0.000491025449 xtb: 6.7.1 (edcfbbe)
N           -1.83777148668553       -2.18221310240661        0.66261364295548
H           -1.97462324344222       -2.16794867887321        1.66824096839651
H           -0.88291015585638       -2.46962170297552        0.48258361223067
H           -3.63387848583414       -2.57256360683362        0.03472885307362
C           -2.09932344468762       -0.86360276554140        0.08982427146707
H           -1.67983614153279       -0.03029281499244        0.66951512784570
C           -1.55234395831250       -0.80634973224386       -1.33751912077420
C           -3.61019125575594       -0.69382971773799        0.03416782486957
H           -1.96895244156800       -1.61683743737164       -1.93258079454017
H           -1.81535812933455        0.14426621669767       -1.79224588560320
H           -0.46879623732077       -0.90285243129867       -1.33100651769620
O           -4.28718995913154       -1.85413472147014       -0.08638405894266
N           -4.08727812598855        0.46318012423737        0.09875993972915
H           -5.55299722115795       -0.72207270253061       -1.87999762916517
C           -5.47576114559758        0.84078254556642        0.00430454762068
H           -5.73124100222717        1.27818185328220        0.97508975284524
C           -5.56835067162727        1.93590883847590       -1.07711841948995
C           -6.48484670035515       -0.24900616234687       -0.27845344693245
H           -4.87414575513196        2.72814926518798       -0.79341830429002
H           -5.21718487005565        1.52259400875525       -2.02782511010492
C           -6.97171373954766        2.51868537353869       -1.27390833166140
O           -6.38337633010066       -0.93049900027514       -1.43562074415122
H           -7.65861574277563        1.70771401600265       -1.53988252757565
C           -7.48948032196469        3.19157124726041       -0.00594106270504
C           -6.94056994954033        3.52232664956292       -2.42599431764940
H           -6.78400873769830        3.94413448309975        0.33983152717215
H           -8.44098835524854        3.67848223748657       -0.20516952298986
H           -7.64470555204501        2.46377086075792        0.78523257685979
H           -6.59159285153136        3.05247016098850       -3.34309221109697
H           -7.93470424997724        3.92349120199429       -2.60613770246062
H           -6.27460913931387        4.34924745590333       -2.18852913223385
N           -7.45708163139220       -0.38670991006979        0.51291142277361
H           -8.48376947798522        0.20344049963444        1.88896507181831
C           -8.49620354361021       -1.36090572913678        0.25824156190194
H           -8.80421781343600       -1.36488493237861       -0.79497804153330
C           -8.04218244804420       -2.77251681717653        0.64698017553174
C           -9.70113347352275       -0.98259209213940        1.12862929044852
H           -7.72400907444811       -2.78553688195216        1.68759929049353
H           -8.86787451262699       -3.46620194503120        0.51671789617220
H           -7.20760958691709       -3.07436476598811        0.01925384349172
O           -9.42363492076965       -0.05316211747980        2.03694699709842
O          -10.78112938313289       -1.49172297187585        1.01359944907250
