42
 energy: -62.486133518481 gnorm: 0.000479342795 xtb: 6.7.1 (edcfbbe)
N           -1.40479249531515       -1.48545793234072        1.03082648596058
H           -0.62515850534936       -0.97178213877706        1.41984462000368
H           -1.09281814312832       -2.42330282516692        0.81356553651633
H           -3.04761929136222       -1.22932170081027        1.83439477923138
C           -1.97062396891796       -0.82385520776388       -0.14744875268945
H           -1.39006057473141        0.06021141380204       -0.43226327770737
C           -2.05714258079332       -1.76301961234099       -1.34953400095003
C           -3.37365565903533       -0.34902074007522        0.22917286909480
H           -2.68083973355724       -2.62323022437351       -1.11286957464050
H           -2.48944632658326       -1.23331987909549       -2.19324809003518
H           -1.06494135070985       -2.11247665305606       -1.62929634927245
O           -3.80040859800792       -0.73424739773542        1.43281429184222
N           -4.02376923981952        0.35697664164079       -0.58982840060814
H           -5.04985745679508       -0.99372254757588       -1.78944246757459
C           -5.37674520539260        0.77183341624423       -0.25996167107638
H           -5.46531468632433        1.03946992509429        0.79832421360447
C           -5.71878330908669        1.97734234789410       -1.15175863498046
C           -6.32223867113418       -0.37446382443877       -0.53677100740243
H           -4.97106699181443        2.74813081058679       -0.95595924637857
H           -5.60288597738901        1.66633855596131       -2.19267577872869
C           -7.12047719878846        2.55766669473227       -0.94775116298820
O           -5.92519541149611       -1.26402648441653       -1.46607370349336
H           -7.85519622914444        1.76045065402994       -1.09513201113063
C           -7.30044516750603        3.12934634348452        0.45610418916524
C           -7.37528486601003        3.64576435209031       -1.99004790267469
H           -6.56994551171339        3.91423680827221        0.64224411019278
H           -8.29546330515642        3.55429611310678        0.56144541586395
H           -7.18183882939898        2.35782846158188        1.21154886365985
H           -7.27839030781495        3.24762447884684       -2.99747292477442
H           -8.37859397138505        4.04864858488516       -1.87753673322047
H           -6.66296322192092        4.45984070282687       -1.87238736260300
N           -7.43570786282215       -0.41841020816095        0.04933799910833
H           -8.76175691525913        0.46595083914042        0.92770671778373
C           -8.40058998778849       -1.45866838934906       -0.22702625440184
H           -8.45234293714783       -1.69724865764083       -1.29749633445468
C           -8.08210474284825       -2.74010434993485        0.55024691201064
C           -9.77203187604107       -0.93951651945154        0.22952469779208
H           -7.97220707631717       -2.51306711590831        1.60869485933663
H           -8.89336149178060       -3.45062404992446        0.41878965307948
H           -7.15548834692298       -3.17463162944215        0.18341462914828
O           -9.71090400482980        0.19970720768375        0.90766800143544
O          -10.79773323103396       -1.52017207546313        0.00524785587332
