42
 energy: -62.486133508746 gnorm: 0.000480915164 xtb: 6.7.1 (edcfbbe)
N           -1.10132951109479       -1.31918876117797        0.01709983134251
H           -0.54392775560672       -0.55500633197788        0.38444759139982
H           -0.47669294223920       -1.96034732405566       -0.45757810157354
H           -2.55470642484081       -1.48452412890415        1.24523868919482
C           -2.12749310272667       -0.82083152667828       -0.89878878100953
H           -1.79648444173374        0.01527981139470       -1.52825910084566
C           -2.62466652607359       -1.95650652974641       -1.79439001576381
C           -3.29654729213266       -0.35256245947271       -0.05240507904176
H           -2.96491749747984       -2.79273925614143       -1.18707861325886
H           -3.45186629768352       -1.60365417178788       -2.40273217195365
H           -1.82624639439005       -2.30038692214428       -2.44837641151229
O           -3.36686318320219       -0.93946269583380        1.16549584305321
N           -4.08692559129062        0.50660566122848       -0.50892770590135
H           -5.22040316732168       -0.71460414462335        2.02777375212072
C           -5.29656007914004        0.92083191343617        0.18025308173039
H           -5.02810062589441        1.35187515943260        1.15780833298502
C           -5.97216342338864        1.98104590782493       -0.69217953929873
C           -6.18731238508640       -0.27919722912519        0.42888942533682
H           -5.25297523578212        2.78757604681996       -0.84353104804835
H           -6.17005307349943        1.52505414884621       -1.66159346688010
C           -7.27254518394326        2.54773351381201       -0.11583586038023
O           -6.05640097190252       -0.94028486405210        1.59456649808383
H           -7.94909589938877        1.71480357701152        0.09794038904761
C           -7.03195856260507        3.32673121408099        1.17599889447396
C           -7.93386035739768        3.45267661019329       -1.15361077963102
H           -6.29085932929553        4.10763680661811        1.01720823641923
H           -7.95531787042831        3.79502085372276        1.50952601641741
H           -6.68357466786458        2.67495892831837        1.97345850361790
H           -8.13762974848397        2.90232963830416       -2.06858701772836
H           -8.87405458997101        3.84561634076391       -0.77376103060999
H           -7.28426579328649        4.29150368579984       -1.39406141114581
N           -7.00534894164794       -0.62782931028629       -0.46378425605345
H           -7.48955049895308       -0.59485548669008       -2.20185730816207
C           -7.84770789605485       -1.79028211294685       -0.31960894343001
H           -7.33311508699758       -2.61816341373778        0.18508644426889
C           -9.12713671818441       -1.45660711445117        0.45618808945556
C           -8.24577440102556       -2.23141203500855       -1.73596537805938
H           -9.63958175426101       -0.61959461413064       -0.01425259566694
H           -9.78403434673782       -2.32182606885896        0.45533204871691
H           -8.87875517114859       -1.19112048897842        1.48094508533839
O           -7.95691199433449       -1.33005652806962       -2.66641330603093
O           -8.78247652004164       -3.27826216878768       -1.97074362613700
