42
 energy: -62.486133497344 gnorm: 0.000483449515 xtb: 6.7.1 (edcfbbe)
N           -1.04331969760775       -0.07322065547273       -1.47833725815338
H           -0.31974191039653       -0.59072808533699       -1.96225186108951
H           -0.61928236493444        0.35693755044394       -0.66082295566466
H           -2.47058279161408        1.15189226325267       -1.89881817831794
C           -2.13327057628013       -0.95503590359997       -1.06503877258159
H           -2.40779465371182       -1.55956337918039       -1.94006291085930
C           -1.79247623635423       -1.88270489504527        0.09891475719622
C           -3.33800450244548       -0.06427164718009       -0.76599162623092
H           -1.57443528410039       -1.30098072114147        0.99199283973568
H           -2.63224428702356       -2.53585187533464        0.31041349148832
H           -0.92566842917473       -2.49234526499946       -0.14879326912684
O           -3.32646650276947        1.10167686421736       -1.42620083155849
N           -4.20831011686539       -0.48703254828916        0.03378560863517
H           -5.27810155927057       -2.15892538256891        0.68322210712836
C           -5.46836452982156        0.13721063842670        0.38845061025525
H           -5.46769468327752        0.17085862614921        1.48892219016231
C           -5.78074727349708        1.52880768846743       -0.16265200122990
C           -6.49431130179087       -0.90689246678179       -0.01675374018885
H           -4.90808368964870        2.16633357153509       -0.01833759926488
H           -5.95699109352820        1.44057412471984       -1.23485697086951
C           -6.99170208459566        2.18758577233911        0.51120807631066
O           -6.19653895253665       -2.16227221205890        0.36718632644698
H           -7.78375231699724        1.44111543720645        0.61622733450605
C           -6.63385932591258        2.72159693339823        1.89725750972528
C           -7.50861091603575        3.32928764135937       -0.36226274031239
H           -5.85043239358893        3.47344377172802        1.82308668334130
H           -7.50403618459772        3.18111695979011        2.36044093032592
H           -6.28583953450656        1.92735028249480        2.55346162076804
H           -7.82820303122278        2.96222942386070       -1.33433228279698
H           -8.35604203021311        3.81830044209324        0.11254595116630
H           -6.72705336481479        4.07077119465567       -0.51478767268330
N           -7.49965587519318       -0.59831297884122       -0.70559773465341
H           -8.35574632719987        0.59280680395277       -1.76047703478567
C           -8.46449496124378       -1.58182563582873       -1.13967280551264
H           -7.98055629013792       -2.49611567161729       -1.50644462317351
C           -9.43627698592935       -1.95548170262545       -0.01504418217334
C           -9.26762900243058       -0.94602176700672       -2.28457365181047
H           -9.90188477080540       -1.05814944364212        0.38806397404061
H          -10.20816797679737       -2.60961436745331       -0.41044145155458
H           -8.90056692152304       -2.46636075139707        0.78109788354021
O           -9.04350409641269        0.35437865625344       -2.42728690388844
O          -10.03574643660768       -1.56459310028070       -2.96750378959567
