42
 energy: -62.486133490061 gnorm: 0.000482365770 xtb: 6.7.1 (edcfbbe)
N           -2.77611660749842       -1.17896784735112        1.04412002679078
H           -1.99046580429199       -1.55314038080951        0.52535903676687
H           -3.28577896016208       -1.96407690459683        1.44310310554094
H           -3.09950525978866        0.11458501591687        2.26833865370663
C           -3.66293373827362       -0.40383625432487        0.17301814114397
H           -3.02858458014587        0.33592285364153       -0.34275968160995
C           -4.32651094226243       -1.28005257767900       -0.88716972879584
C           -4.52517947539458        0.48924764896077        1.10967332552871
H           -4.82107539380824       -2.12721237825445       -0.42176170035523
H           -5.05206341152271       -0.73672397250741       -1.48104286328218
H           -3.55603768151777       -1.66416403878327       -1.55710555990749
O           -3.88893415596828        0.70373541663078        2.26582788540133
N           -5.54342388547630        1.20412902157050        0.92404812704053
H           -8.63696421030528        0.56175733004507       -1.19524960530805
C           -6.62457125277953        1.14318145549116        0.00208073066970
H           -7.39698009270451        1.80464547634843        0.43299649968069
C           -6.27304063329415        1.69792359435776       -1.40275856282104
C           -7.28039150814110       -0.22312550877679       -0.07636552526320
H           -5.25179436851424        1.40488153955182       -1.65057559636887
H           -6.93482778580283        1.26382057481943       -2.15935053899570
C           -6.37134542136298        3.22640197095656       -1.47627197807757
O           -8.41098045082642       -0.29708903923707       -0.81517046592112
H           -7.35735653225404        3.53198787728957       -1.10518165372096
C           -5.30137585417427        3.88116461887807       -0.60801175283892
C           -6.23955514457546        3.68935069351107       -2.92648160046696
H           -4.31226296213920        3.67239030305603       -1.01066885257318
H           -5.44051401375588        4.95915871059001       -0.58294954006684
H           -5.34426979831201        3.49564792523980        0.40717764823777
H           -7.03152239554307        3.27182296707228       -3.54560985641081
H           -6.29914238326784        4.77335321742402       -2.98231103510504
H           -5.28187420560542        3.37859337441676       -3.33871809294361
N           -6.82860942507993       -1.17510776847486        0.60503515835806
H           -5.67367732275998       -1.65697678442658        1.90637332798873
C           -7.40058322997565       -2.49702524707063        0.68824686830398
H           -8.32956228445995       -2.45246436591591        1.27494397237638
C           -7.69823061815618       -3.18491604931258       -0.64445545301838
C           -6.40336662882979       -3.33486895447149        1.51144651305127
H           -6.82939759943404       -3.13559197581769       -1.29748752037089
H           -7.93088049721934       -4.22842087535474       -0.45027574750440
H           -8.53910930705542       -2.71013486755596       -1.14079752024211
O           -5.48933276671743       -2.59957483004615        2.14088077763915
O           -6.43804790286077       -4.53121714256458        1.57724659644120
