42
 energy: -62.486133510496 gnorm: 0.000479828954 xtb: 6.7.1 (edcfbbe)
N           -0.88979316564889       -0.82543515699983        0.45004540279243
H           -0.59175736204387        0.05632071390385        0.85396314166748
H           -0.06697602972825       -1.30319920102235        0.10260183405780
H           -2.41824519670338       -1.27476977134010        1.48700914696038
C           -1.85404976688272       -0.60161579001241       -0.62681060192060
H           -1.62908299556661        0.27217725795320       -1.25257705208807
C           -1.94323497638141       -1.84215255307333       -1.51677589884921
C           -3.20760050905829       -0.38393340340162        0.02532723149190
H           -2.16719705516373       -2.72221978582529       -0.91685413583253
H           -2.73002374893190       -1.70481945735160       -2.25257415967709
H           -1.00056706059695       -2.00303184292895       -2.03521009205198
O           -3.31833792983257       -0.95600777402756        1.25880803425830
N           -4.08852502668526        0.26421570368318       -0.57872365390109
H           -4.93175617986077       -1.65993915886961        0.89883137786084
C           -5.42647533617248        0.54116375797281       -0.10284074270463
H           -5.36658203299298        0.91256923097759        0.93588438644463
C           -6.01790562810907        1.62843606635828       -1.00630613843455
C           -6.31098111002802       -0.69147836643754       -0.02847221434797
H           -5.19746308808245        2.28011872673384       -1.31024960381736
H           -6.40857044207370        1.14688183296359       -1.90225269366999
C           -7.11524302787204        2.46665934589665       -0.34079603752475
O           -5.81974360142178       -1.80743171048535        0.53274510498152
H           -7.78558191644322        1.79403667071265        0.20203818529330
C           -6.52152505725019        3.47095587799336        0.64572028604198
C           -7.92022102314301        3.20818041318328       -1.40646112717080
H           -5.87363431598521        4.17340201619623        0.12517419115596
H           -7.31273653805519        4.03401362701863        1.13518618629596
H           -5.93668184866128        2.97453045562428        1.41635635982002
H           -8.40248530162026        2.51218182006867       -2.08798437614749
H           -8.69089815844492        3.81977699596792       -0.94347820557898
H           -7.26847033867816        3.85995731547387       -1.98463315710686
N           -7.50121294726423       -0.60242822196405       -0.43443359496818
H           -8.71525372826083        0.23688436891955       -1.46896600598248
C           -8.42665453770085       -1.70868226172796       -0.35668246830796
H           -7.95344576067811       -2.66366469769261       -0.61727459742178
C           -9.04516920720244       -1.82694951820612        1.04088265880315
C           -9.55434712382363       -1.42181366876906       -1.36028082010643
H           -9.48589204899443       -0.87591792279181        1.33377762822095
H           -9.81957336843933       -2.58863763435083        1.02703656694016
H           -8.28033714842356       -2.10153138785234        1.76310072046302
O           -9.51709117990665       -0.19124855288686       -1.85574397348935
O          -10.39486844225497       -2.22758027121058       -1.64917205653312
