42
 energy: -62.486133508100 gnorm: 0.000481183982 xtb: 6.7.1 (edcfbbe)
N           -1.86523982357017       -1.81239216201494        1.16528022196498
H           -1.57798743345797       -1.22847738727907        1.94368098666667
H           -1.10018217925183       -2.43872541453995        0.94544839044589
H           -3.77655085794561       -1.90802002041010        1.44864743291987
C           -2.22004177509709       -0.99546952144568        0.00694381148142
H           -1.56136865140370       -0.12915104316107       -0.14586285311705
C           -2.21297312096318       -1.85560714046114       -1.25787742013814
C           -3.63424490029027       -0.48797421806312        0.23571295525866
H           -2.89584540361871       -2.69511089477302       -1.14510032619404
H           -2.52170569326152       -1.25623226492270       -2.10911459970388
H           -1.21325937316977       -2.24100391779429       -1.44706789380013
O           -4.36861011562208       -1.21625590613687        1.08582040441937
N           -4.03148118518078        0.53458995821038       -0.38308171854881
H           -5.36862223711594       -0.39282982221073       -2.15382089041064
C           -5.40102390051501        0.99763024391940       -0.22628053763512
H           -5.57645271977833        1.29287358137147        0.81341966712970
C           -5.60502218614624        2.19450957021678       -1.16516435571815
C           -6.36553652323457       -0.11617140764554       -0.55512328274099
H           -4.91086624785435        2.97842220700210       -0.85910103309223
H           -5.32345781907926        1.89268905123566       -2.17785622203281
C           -7.03595611541503        2.74154015405855       -1.18211595825549
O           -6.14960470419700       -0.76291719377908       -1.71998706526498
H           -7.71983881600254        1.92926900443143       -1.45292041318397
C           -7.45105857391454        3.28339749751600        0.18298199552932
C           -7.14641915417612        3.83986968502828       -2.23866792634921
H           -6.75026909105304        4.04560872887578        0.51740792531849
H           -8.44055766029312        3.72992541979462        0.12230632771745
H           -7.48630923290003        2.48883652866275        0.92271739967891
H           -6.88235214555565        3.46012260083018       -3.22328366310488
H           -8.16259409268573        4.22370060311064       -2.28264930160825
H           -6.47835106495123        4.66416095037779       -1.99802030905218
N           -7.29921759585498       -0.39830409028603        0.23869901461707
H           -8.32200063413842        0.02167782043597        1.66534030555878
C           -8.24081947659806       -1.46041521142753       -0.03626332250519
H           -8.59622096211375       -1.43398942092998       -1.07425363847778
C           -7.63274408504447       -2.83891899179901        0.24464252164247
C           -9.43790720675777       -1.25751965625416        0.90406519272286
H           -7.21279219603141       -2.85755447885161        1.24815031934112
H           -8.40694333427200       -3.59676087536399        0.16351869686790
H           -6.84337142054889       -3.04728785769130       -0.47290435688247
O           -9.22240076941421       -0.34171894182048        1.84028651848713
O          -10.45799076891307       -1.88204157199304        0.81038214526299
