42
 energy: -62.486133518862 gnorm: 0.000479027008 xtb: 6.7.1 (edcfbbe)
N           -0.92729169033031       -0.19175032851395       -1.20203435545036
H           -0.27728544539044       -0.66010409002095       -1.82117362174606
H           -0.48457610108503       -0.11792964963595       -0.29019918602832
H           -2.05363616773657        1.34672006017609       -1.19980457696547
C           -2.17823690564751       -0.93996561042195       -1.08972413651085
H           -2.47527796638711       -1.23521762646029       -2.10406375578012
C           -2.09970500490817       -2.18519440465107       -0.20959016531413
C           -3.24794578235952        0.03359557238743       -0.59977442321708
H           -1.79779210762272       -1.91308826402036        0.80019703196950
H           -3.07585655870260       -2.65563749357748       -0.16440633471349
H           -1.37917097023450       -2.89248781145127       -0.61543580348516
O           -2.95325311547220        1.32621981841098       -0.81108370044833
N           -4.28318006311312       -0.43807010009797       -0.07060424154808
H           -5.58682568555647       -1.68158092295598        1.70814042534305
C           -5.43299597064487        0.30717055371822        0.40362829071166
H           -5.25052837171614        0.56586513074456        1.45716008685647
C           -5.79729791475069        1.57098538741091       -0.38170574415590
C           -6.52924398816907       -0.73991600837899        0.34668433006271
H           -4.94554704422773        2.25043023023444       -0.36749122005844
H           -5.97682501582168        1.27470539582310       -1.41627337378139
C           -7.02829641479795        2.30341286833497        0.16422335425191
O           -6.43819827642885       -1.73340494415360        1.25546391199223
H           -7.83209498513825        1.57749055252519        0.31758085117220
C           -6.72728284706535        2.99160214583583        1.49439254025889
C           -7.49773741730137        3.33646116075341       -0.85868030922413
H           -5.90583543258129        3.69611074023222        1.37954225903077
H           -7.60080719534801        3.53911327979086        1.84121175482554
H           -6.45882175793380        2.27148937311976        2.26367033384545
H           -7.76841817876937        2.85607314646854       -1.79568022922573
H           -8.36716511995276        3.87361452366021       -0.48676577236872
H           -6.70809200060207        4.05820583529690       -1.05692449956071
N           -7.38080520470404       -0.72605626144933       -0.57778367497239
H           -7.98278055657877       -0.02412888178572       -2.11873731259527
C           -8.37565659083556       -1.76105437397475       -0.73157196885901
H           -7.93918669215568       -2.76345196004436       -0.63782008193931
C           -9.50971257922717       -1.61821484408506        0.28968838493395
C           -8.97035035354295       -1.60111107978293       -2.13952100525398
H           -9.93383285455319       -0.61718033347717        0.23709103312926
H          -10.28632200132496       -2.34461743115492        0.06779100307240
H           -9.12772389810904       -1.79060519219187        1.29273018979991
O           -8.60914383274283       -0.47222003523329       -2.73690073103284
O           -9.70545519718896       -2.40830396291363       -2.63651043739106
