42
 energy: -62.486133510593 gnorm: 0.000480530163 xtb: 6.7.1 (edcfbbe)
N           -1.42972328384912       -1.56904191596422        1.00373963118989
H           -0.42477825773248       -1.68235518904015        0.95484233988767
H           -1.84460181830363       -2.49643871805551        0.97066893553888
H           -2.76617827870860       -0.64724046946186        2.04420323349565
C           -1.92380983796726       -0.75949379518275       -0.10733740807009
H           -1.26809558315368        0.11611172172978       -0.19168852941205
C           -1.96939173895529       -1.48094248312122       -1.45391691758502
C           -3.29681975802351       -0.23737585624111        0.29369346920065
H           -2.61709457610414       -2.35447441079241       -1.39214432824605
H           -2.35889053556831       -0.80950320742076       -2.21245807342771
H           -0.97154714518481       -1.80339398233430       -1.74356009835722
O           -3.54518257574902       -0.24447351949682        1.60929324123950
N           -4.07974096632585        0.19521036317590       -0.59361628497322
H           -5.09237547067124       -1.08896651271891       -1.74188570396767
C           -5.40405447012584        0.67542732485616       -0.24623349688022
H           -5.48150398946662        0.95408393021762        0.80942046993300
C           -5.71044388846176        1.88463686500060       -1.14662434282390
C           -6.37670118674954       -0.44798664022591       -0.52601336328989
H           -4.94300200507927        2.63766519427977       -0.95567713944095
H           -5.60410921837636        1.56318139731220       -2.18549861356788
C           -7.09578367571113        2.50396349007332       -0.94472933595321
O           -5.98526821088370       -1.34503903303684       -1.44732158421089
H           -7.85182102917179        1.72608111991168       -1.08732850244425
C           -7.25843208389897        3.08796110940474        0.45618535581117
C           -7.32020513083119        3.59287345022736       -1.99312191497180
H           -6.50384379400554        3.85046606849874        0.63902420880508
H           -8.23966490884163        3.54449919228253        0.55850082974973
H           -7.16475690523044        2.31707109225372        1.21560521724544
H           -7.23925862864311        3.18565443707771       -2.99839948875824
H           -8.31000850698301        4.02764892055569       -1.87973978687714
H           -6.58250998045880        4.38522850700173       -1.88283675560933
N           -7.49302706248052       -0.46764154943206        0.05662109354030
H           -8.79225153073037        0.43463320829848        0.95154097579110
C           -8.48005037846568       -1.48676657282069       -0.22263660614043
H           -8.55366885741716       -1.70051361356160       -1.29701919324565
C           -8.17262413806035       -2.79164483583534        0.51914936525956
C           -9.83524254025508       -0.95233387271808        0.26520844746749
H           -8.03961049788069       -2.59177909554865        1.58049460375846
H           -9.00021953302120       -3.48266917407012        0.38676761653556
H           -7.26231802519629       -3.23599541710335        0.12435897581238
O           -9.74519556326038        0.18127420346351        0.94920618225548
O          -10.87238569328080       -1.51962755256027        0.06019830617963
