42
 energy: -62.486133515962 gnorm: 0.000479235816 xtb: 6.7.1 (edcfbbe)
N           -0.86847882227724       -0.58744558331632        0.55124411718020
H            0.08609078428677       -0.66807591667979        0.22345473573170
H           -1.05874411909814       -1.39225308968786        1.14206132236745
H           -2.04587486531531        0.73302433405215        1.33850894018607
C           -1.80867309076838       -0.55625215421483       -0.56705577472157
H           -1.41944044368654        0.16270813107893       -1.29967638226622
C           -2.02963657242598       -1.90198501351993       -1.25628768879388
C           -3.10925088631023        0.02863935130879       -0.03541291713759
H           -2.44386821088539       -2.62310307312973       -0.55417284124151
H           -2.72190305841650       -1.78146215169229       -2.08293110851684
H           -1.08679953987268       -2.28716475180674       -1.63953363613947
O           -2.98155012344391        0.79249527518682        1.05751691258522
N           -4.19028010677671       -0.19313017823844       -0.64174307792924
H           -5.05838476678152       -1.77094528226777       -0.99176180396133
C           -5.44922559169590        0.34979191615575       -0.16804273798965
H           -5.40711961100357        0.59431035169133        0.90091975620739
C           -5.71233433781749        1.63624053964068       -0.97371746729196
C           -6.48845705439564       -0.73761215848211       -0.37673202388276
H           -4.88947970218067        2.31776613983652       -0.74145468952107
H           -5.64253093342170        1.38049443784917       -2.03365394003393
C           -7.03878667139859        2.35437276147148       -0.71917966381965
O           -6.00799520769453       -1.91691556046885       -0.79760346599640
H           -7.84941214317426        1.72059014513866       -1.08482440999953
C           -7.26073408404671        2.64088862206505        0.76295145895205
C           -7.05777152831719        3.65965486847046       -1.51416189847461
H           -6.43385203832907        3.22318447692475        1.16522349822954
H           -8.17795089393154        3.20840106636459        0.90058078317626
H           -7.34308007300028        1.71628416544884        1.32749563587243
H           -6.89807548909918        3.46987869249642       -2.57295323773047
H           -8.01735534057605        4.15670955561524       -1.39725432677818
H           -6.27769144089676        4.33290351850899       -1.16391476733896
N           -7.71654730852584       -0.50090717625335       -0.21136409349916
H           -9.13610780565515        0.61004603244850        0.20189901185069
C           -8.70563970971190       -1.53397082916000       -0.43463774980418
H           -8.54002379885789       -2.05264252222348       -1.38735028622017
C           -8.71850279124603       -2.57270294900429        0.69380171873335
C          -10.08138866276746       -0.85654446291478       -0.46620950612667
H           -8.84740980012916       -2.07715252832943        1.65435397278056
H           -9.54199807182057       -3.26369222556628        0.53637039350947
H           -7.78107499391534       -3.12282446618338        0.70023356748311
O          -10.07293354382309        0.38731180787035       -0.00126017245850
O          -11.07591881089152       -1.41093997136043       -0.84479114601168
