42
 energy: -62.486133513237 gnorm: 0.000479885976 xtb: 6.7.1 (edcfbbe)
N           -1.28247567809025       -0.22361022519176       -0.91142141685116
H           -1.19862387511816        0.77887339011683       -1.04285574891662
H           -0.86188757970549       -0.68516857487008       -1.70954307202669
H           -1.30904571455635       -0.38698100454010        1.02756039743050
C           -2.67964356640687       -0.61928928497849       -0.74981434580397
H           -3.31495584532218       -0.19787287456141       -1.55099882282507
C           -2.74585569938871       -2.14943923875526       -0.74922839321875
C           -3.12299004826511       -0.08341544623144        0.63227827652154
H           -2.01781210694011       -2.53789628871711       -0.04023727506300
H           -3.72860159701690       -2.51052949660401       -0.45841248079921
H           -2.50906200024911       -2.54186937354225       -1.73718821404416
O           -2.12164653643007       -0.15995739158263        1.52135177401912
N           -4.18225162610302        0.44135759546349        1.04194614046282
H           -4.92898249264988       -0.90156574750803       -1.27827628751422
C           -5.50319146407219        0.69127334411145        0.55642072794778
H           -6.05867458150203        1.03463733615689        1.43494057280559
C           -5.47793120694313        1.83461706310230       -0.48964737367593
C           -6.30088976409860       -0.46031390533202       -0.01749534492535
H           -4.88444790799543        2.64712558996403       -0.06532275689454
H           -4.95987339796804        1.48407240350530       -1.38849130671539
C           -6.85721719439982        2.36808042866422       -0.89218738568550
O           -5.78688936587739       -1.23365645939593       -0.99209044912602
H           -7.48180723692801        1.52965192808352       -1.21848300851542
C           -7.55516036084254        3.06850394313048        0.26998047388120
C           -6.69902545753453        3.33693581208942       -2.06426370393739
H           -6.95176141286754        3.90016833510464        0.62798202031090
H           -8.51795422277189        3.45525352435424       -0.05402221948482
H           -7.72906895288626        2.38366290571968        1.09462343518993
H           -6.24739430345879        2.84306084344344       -2.92265618619638
H           -7.66876214635803        3.72319589112813       -2.36729563144145
H           -6.06892754075112        4.17729476614111       -1.77925374830644
N           -7.48627730678021       -0.59222221898179        0.39132811327316
H           -8.96225704114957        0.13770111973466        1.19950402541455
C           -8.37595978357767       -1.58857520756160       -0.15823279084761
H           -8.23600392142774       -1.71863933978275       -1.23964532911189
C           -8.18856772017153       -2.94437428299051        0.53216979042583
C           -9.81218483999552       -1.10961852648392        0.10222766942657
H           -8.27890790323137       -2.82782513917842        1.61020448488786
H           -8.95090147304729       -3.63426957027176        0.18124294945265
H           -7.20433062411106       -3.34497607048043        0.30129069169898
O           -9.88703265729206       -0.10133288054001        0.96218191490450
O          -10.77096296425803       -1.61435292916264       -0.41132836378829
