42
 energy: -62.486133508444 gnorm: 0.000480320001 xtb: 6.7.1 (edcfbbe)
N           -1.12615019777790       -1.77266607825504        0.24422598510610
H           -1.15758037864926       -2.00446348243299        1.23167177221329
H           -0.15328437347585       -1.73020192061951       -0.03565497439637
H           -2.69431200672649       -2.52627341756286       -0.48238531856213
C           -1.79870601469577       -0.49952054195855       -0.01220421304256
H           -1.62119591246467        0.26194698397588        0.75820610264495
C           -1.36482723800732        0.04992109089483       -1.37145529863541
C           -3.29558535145469       -0.78481897119091       -0.07088858366267
H           -1.53980270730830       -0.69098530863777       -2.14897820252421
H           -1.93476230103134        0.94502018066343       -1.60132700813777
H           -0.30618379406966        0.30024677022239       -1.35913954263583
O           -3.56122219058474       -2.06268822087217       -0.46688455752373
N           -4.08465035140707        0.13832844186010        0.19731926928915
H           -5.23398180423002       -2.10081101281774       -0.45851435685936
C           -5.50029547739744        0.36133599181903        0.18233295952906
H           -5.71265172812105        0.86327763011131        1.13228960864737
C           -5.67568686708556        1.39668461422991       -0.96423502374797
C           -6.52816462416061       -0.75170876150494        0.02780655827108
H           -4.85317671035356        2.10691893103897       -0.85510324679280
H           -5.53354981698711        0.86747022664029       -1.91039615279094
C           -6.99275894594714        2.17147345069910       -1.02130240945179
O           -6.19525130949383       -1.99191393762126       -0.33478233778488
H           -7.81147638616582        1.46411135501603       -1.16982454665987
C           -7.24687276386882        2.96507284881456        0.25668344054792
C           -6.95655625568288        3.11745436230648       -2.22177286022283
H           -6.43057608139052        3.66122339749039        0.43914825534872
H           -8.16921645085119        3.53295420070680        0.16512647588566
H           -7.33923666383185        2.30699424055379        1.11612833944081
H           -6.78838145852740        2.56688003915748       -3.14450989458696
H           -7.90065107051203        3.64872783572653       -2.30958376761687
H           -6.15956641274942        3.84974856508368       -2.10811875472450
N           -7.73623818734521       -0.41232709080455        0.20246336202987
H           -9.03813671558880        0.82972291121705        0.55652202136452
C           -8.80998026129338       -1.36616564710973        0.02747619066467
H           -8.70355919606006       -1.92874606978184       -0.90903242848233
C           -8.89764386669384       -2.36269770638216        1.19028850848178
C          -10.12393638266025       -0.57566223287034       -0.01343935766032
H           -8.96285363573547       -1.82619964373387        2.13510121422964
H           -9.78435007062416       -2.97836305648407        1.06797785761113
H           -8.01557426045910       -2.99752971120001        1.20161359861679
O           -9.99735740564508        0.68535999526823        0.38381573034240
O          -11.17024763191267       -1.05915696998084       -0.34772955761153
