42
 energy: -62.486132242852 gnorm: 0.000632954652 xtb: 6.7.1 (edcfbbe)
N           -1.07294889018632       -1.07533220763676        0.72671018390969
H           -0.76683332210498       -0.25320781661791        1.23657475920655
H           -0.24844265489706       -1.59145303546906        0.44373734623164
H           -2.79273581380155       -1.44137400117615        1.55160608788973
C           -1.87441212876970       -0.69556959458795       -0.43446187790260
H           -1.49692099952804        0.18429722347384       -0.97290048781352
C           -1.96643488658585       -1.87415186653584       -1.40674664720851
C           -3.27074679453150       -0.38026031450591        0.07482513809409
H           -2.36006945743012       -2.75349670360498       -0.89954208134688
H           -2.61473007703540       -1.61644072274695       -2.23974848275077
H           -0.98079389416671       -2.11545343962530       -1.79898194066117
O           -3.60243787729772       -0.99782009674016        1.22600022661331
N           -4.00609331771610        0.41101182014764       -0.57338517331624
H           -4.79226640108478       -1.63168252366949       -0.77714947784091
C           -5.37024791506047        0.68690255919781       -0.17638884962412
H           -5.39788201263693        0.97940712181556        0.88316748169654
C           -5.79609512526813        1.87405332438399       -1.06066557923198
C           -6.28259817181240       -0.52452939970163       -0.30650962707178
H           -5.03201728896579        2.64041647931928       -0.91239308469517
H           -5.72675115608116        1.54567411958253       -2.09928051701452
C           -7.17443004943085        2.49289505438955       -0.82232844673238
O           -5.74221351768685       -1.71640545316912       -0.61838814804356
H           -7.93457300890546        1.78338085594923       -1.15425235237424
C           -7.41258353715154        2.82776778087377        0.64738492073068
C           -7.30589089552174        3.75613577569098       -1.67302794730821
H           -6.63866588390432        3.49954928598267        1.01396454012268
H           -8.37536182119934        3.31877236358370        0.76739735048222
H           -7.41036152192940        1.92798635183024        1.25668945335878
H           -7.13348061244533        3.53324898067992       -2.72318514203790
H           -8.30384448111096        4.17533813593340       -1.57208154428146
H           -6.58434267711091        4.50752457172614       -1.35843481656471
N           -7.53113898440843       -0.36348845638151       -0.22380040562588
H           -9.05626195778784        0.64219885155982        0.17194488408817
C           -8.43612465066792       -1.48023604299229       -0.38914123960984
H           -8.21281753460006       -2.05002717776352       -1.29979258508708
C           -8.40191442014523       -2.43514660049424        0.81143657658328
C           -9.85798467010060       -0.91425322641317       -0.48480468378151
H           -8.59644634866359       -1.88461786110569        1.73008269981038
H           -9.16483241601676       -3.19829304574893        0.68518170865904
H           -7.42583985108542       -2.90769832144116        0.88138165473168
O           -9.96417541972385        0.33459027762420       -0.04571951258440
O          -10.79144881482217       -1.55223888491460       -0.88603925736466
