42
 energy: -62.486133511567 gnorm: 0.000480323065 xtb: 6.7.1 (edcfbbe)
N           -2.69487526495005       -2.20198189357976        1.38028815515647
H           -3.00442826492145       -2.06791851316229        2.33716765053103
H           -1.74281203517969       -2.54710806188855        1.40207788876567
H           -4.34199608142928       -2.59033070345355        0.52152833150345
C           -2.78436452140649       -0.95500749548864        0.62577335159929
H           -2.41043782300724       -0.07534812581517        1.16685390369168
C           -2.01843908402657       -1.09759291513692       -0.68971087728358
C           -4.26249040764335       -0.73360795358668        0.31211889810041
H           -2.38895816457654       -1.95591781863313       -1.24576963823341
H           -2.15331785320299       -0.20225118542907       -1.28848795208850
H           -0.95658436093598       -1.23740902615051       -0.49846808738077
O           -4.95794843540837       -1.88095723290452        0.23103698869515
N           -4.63603501563715        0.44321494787699        0.10954745920789
H           -7.93875258254655        1.13863109279518       -1.61770328843969
C           -5.92466648575188        1.00965684815722       -0.18129541189903
H           -6.09241707020985        1.71664556226851        0.64682083988016
C           -5.76288678167207        1.82927605550482       -1.48001846597641
C           -7.14897527254549        0.10514495796945       -0.19114174056879
H           -4.69783247223998        2.04463115182519       -1.58189563227558
H           -6.03832505680515        1.20978968607592       -2.33923078446800
C           -6.53135534616395        3.16162147471381       -1.49195377910048
O           -8.15104992851559        0.38163445245416       -1.05854838798791
H           -7.51577561201550        3.03470341625015       -1.02296268732838
C           -5.77290636868526        4.21966682742695       -0.69323701278752
C           -6.73835250582679        3.63977259167560       -2.92880278514167
H           -4.81857481507923        4.43659870989082       -1.16765714573295
H           -6.34777722474681        5.14125702888922       -0.63910413470912
H           -5.57886398063108        3.87683471605693        0.31992612862097
H           -7.32945991096580        2.92867100096805       -3.50368870770697
H           -7.25537528984396        4.59633292408837       -2.93985701690123
H           -5.77847262882872        3.76480515877195       -3.42491065854519
N           -7.22214109393836       -0.83218539620204        0.64119094065373
H           -6.35219659232374       -2.02547895745288        1.74349180362629
C           -8.35382908374032       -1.72010889504412        0.74378964246067
H           -9.29343304869670       -1.16778697623371        0.86625261989535
C           -8.47463594777945       -2.65333348628246       -0.46765768873759
C           -8.11121771761420       -2.59488846445682        1.98137898481380
H           -7.52450923517662       -3.15583764253154       -0.63754348450906
H           -9.24616033162992       -3.39442217587206       -0.27749186771277
H           -8.73560704605382       -2.07974288132784       -1.35293028830799
O           -6.83750137426153       -2.63391378635671        2.35181617554153
O           -8.98045314819075       -3.20778463098352        2.53794304895235
