42
 energy: -62.486133512307 gnorm: 0.000479455252 xtb: 6.7.1 (edcfbbe)
N           -2.76923812459563       -1.67069669910164        1.88034263222993
H           -1.87633472530208       -2.13779815563467        1.98298832006196
H           -3.49566947517597       -2.37354508442961        2.00062996635701
H           -3.77468815829189       -0.14442462031440        2.46608408539307
C           -2.89067779444973       -1.06640106734476        0.55411771534702
H           -1.99534972694227       -0.45101435365546        0.39175163080014
C           -3.03469322556775       -2.06525339432950       -0.59192353310966
C           -4.08142143209660       -0.12334417368464        0.61782751003947
H           -3.86984391884646       -2.73403046020130       -0.39763474866207
H           -3.23004617132093       -1.52975221376678       -1.51441998197963
H           -2.12655419928478       -2.65512376435211       -0.69830268963906
O           -4.37343650895995        0.32738295777754        1.85146885526487
N           -4.72191788487584        0.15762042176781       -0.42741893968704
H           -8.15927802988856        1.33021127814551       -1.32300827245616
C           -5.89715545204917        0.99594072561955       -0.36001148638644
H           -5.93597430830972        1.55744966941072        0.58653239193897
C           -5.89047605153245        1.97005482655082       -1.54894113799493
C           -7.09247368670897        0.05645935025824       -0.36314829814439
H           -4.84686216394383        2.15269519767871       -1.81036953721042
H           -6.34463850630873        1.48559854170070       -2.41793497230144
C           -6.57234973595284        3.31636883291930       -1.25729428976682
O           -8.24885725505408        0.45470124621295       -0.92448606655049
H           -7.49155889558379        3.15348519938376       -0.67831122996833
C           -5.65558319517412        4.21367831117586       -0.42809080666446
C           -6.94389571293053        4.01369952171585       -2.56527615413527
H           -4.75910762981895        4.45911288321625       -0.99309556310453
H           -6.16250205947789        5.14006283595492       -0.16786568758750
H           -5.35404706083445        3.71973571530895        0.49236035222400
H           -7.64123585277158        3.41525476640459       -3.14894152476511
H           -7.40775094288370        4.97658335350097       -2.36455747531002
H           -6.05340847895864        4.18197135224881       -3.16653136119214
N           -6.93720642129250       -1.05546373648837        0.20173952876648
H           -5.82216059298288       -2.02087447677774        1.06410538569796
C           -7.91728077247098       -2.10130405265901        0.32555317283383
H           -8.80473588840827       -1.75504722761282        0.87101748544867
C           -8.35547553669215       -2.68579445733120       -1.01991774374283
C           -7.23716930503039       -3.20726371970588        1.15818979791494
H           -7.47982266458898       -2.96418351084095       -1.60310066810763
H           -8.96192680611574       -3.56968887534121       -0.84323026976459
H           -8.93350856375412       -1.95285114221875       -1.57616385236644
O           -5.97286716130655       -2.92536166716262        1.45709423811743
O           -7.78701122400429       -4.22087612347589        1.48710870864014
