42
 energy: -62.486133509780 gnorm: 0.000480555779 xtb: 6.7.1 (edcfbbe)
N           -1.10737461216640       -1.24527095609822        0.76048892085774
H           -0.11093969721525       -1.28676169082440        0.58618016518065
H           -1.43689989953010       -2.19918004602690        0.88173170564860
H           -2.36798042141628       -0.29817566596202        1.87057682292857
C           -1.81166996806926       -0.60975865997723       -0.35100304128092
H           -1.25702777221249        0.30030376886593       -0.61308806212427
C           -1.96114584123175       -1.47949836019374       -1.59870657151039
C           -3.16364905639175       -0.15052654168453        0.17878537104907
H           -2.46075903264675       -2.41523818738856       -1.35136900976156
H           -2.55368733101531       -0.95110926135830       -2.33844501989423
H           -0.98460030685989       -1.70777689160904       -2.02050647742379
O           -3.23067477333035       -0.00843556554651        1.51005208241337
N           -4.09556119617512        0.10198841700404       -0.63242216137682
H           -4.88650464219251       -1.65953709034115       -0.85490861899865
C           -5.39733271220780        0.54204870934940       -0.16701775993629
H           -5.37511838211672        0.83472284289587        0.89123427856752
C           -5.75002889342925        1.75760141684286       -1.04385991857656
C           -6.36301173134020       -0.62247479558018       -0.30256863255006
H           -4.97455943100204        2.50484583438655       -0.85575789510074
H           -5.65434256570888        1.44284746888604       -2.08493606177107
C           -7.12132177490161        2.40339165073870       -0.83938835350536
O           -5.81612777464933       -1.81475970194398       -0.60895398743550
H           -7.88617471491293        1.70386927320412       -1.18223723283010
C           -7.38211708740612        2.74940537436195        0.62373097387824
C           -7.21055317689399        3.66328221555111       -1.70022074710592
H           -6.60456409649912        3.41023017609686        1.00225989545385
H           -8.33902479097483        3.25621801918051        0.72331890259421
H           -7.40442316859991        1.85191047004563        1.23568602485146
H           -7.02305775025444        3.43019243433488       -2.74567220465016
H           -8.20111035632764        4.10387336491970       -1.62066707932763
H           -6.47951697014628        4.40160396351937       -1.37645632433563
N           -7.60658747410927       -0.44443278249202       -0.20155227016945
H           -9.10978103163790        0.60525209738854        0.13192727710577
C           -8.53061418709353       -1.54698408476724       -0.35603091922680
H           -8.30874212440991       -2.13885060103282       -1.25294317244180
C           -8.52303420401649       -2.47860078046545        0.86282975336319
C           -9.94027390791929       -0.95532519146002       -0.47831095390702
H           -8.71122044967882       -1.90677598060278        1.76972587082303
H           -9.30076109012454       -3.22833264169746        0.74686566487905
H           -7.55714128268103       -2.96986336951745        0.94682742649947
O          -10.02226955294029        0.31052338639540       -0.08574213561156
O          -10.88490602739904       -1.58846788465605       -0.86052146360608
