42
 energy: -62.486133503125 gnorm: 0.000480551665 xtb: 6.7.1 (edcfbbe)
N           -1.36451214240833       -1.09902694300114        1.05666851117955
H           -0.39775398930905       -1.34996604628310        0.88784437195636
H           -1.80643946879986       -1.88307996614799        1.52844771002989
H           -2.42525222904865        0.37037980106038        1.74675198948676
C           -2.06067138150302       -0.82134210644702       -0.19824045575970
H           -1.42745256055507       -0.13197711604389       -0.77244016855611
C           -2.36169401247559       -2.05384803348456       -1.04747881575130
C           -3.32715976073234       -0.05757206150133        0.15949446914637
H           -3.01110474764880       -2.73495260210251       -0.50241225640286
H           -2.86835630924801       -1.75503576821998       -1.95805013618239
H           -1.43891554890811       -2.57054648798192       -1.30467345048240
O           -3.27036361323719        0.61442906817397        1.31917086095154
N           -4.31429604611043       -0.07839667174974       -0.62020680119447
H           -5.78541449317449       -0.50703502584853       -2.31929334416057
C           -5.52401055059656        0.65739193686606       -0.30448818671185
H           -5.58905401307878        0.90043936242848        0.76133080475665
C           -5.57874409531136        1.94469075449062       -1.14234054294609
C           -6.65521109482082       -0.27418200934329       -0.66623371839883
H           -4.80965191701358        2.62250870619109       -0.76634043996168
H           -5.32280834334619        1.70124357739755       -2.17790944650602
C           -6.94304448815814        2.64210952989687       -1.11182182499136
O           -6.63030584110044       -0.75872005288031       -1.91917215859549
H           -7.69975567836754        1.94820643637478       -1.49527004370850
C           -7.33806537547248        3.05000816990501        0.30481613818311
C           -6.90513208650235        3.86738224271057       -2.02380070896935
H           -6.55832948963727        3.66000515465030        0.75594325790854
H           -8.25799144438897        3.62931253830101        0.28352945432767
H           -7.50445962398797        2.17579464088702        0.92771655226874
H           -6.64058103786761        3.58700553519099       -3.04110163889098
H           -7.87731178435775        4.35340643390069       -2.04591753943205
H           -6.17129365515980        4.58497174920384       -1.66281281881939
N           -7.49485971503641       -0.61079453884791        0.20981514510820
H           -8.30535752726136       -0.29437759097892        1.79448950505270
C           -8.57723278714109       -1.52567875054063       -0.08377682693210
H           -9.05017071030881       -1.30029979393287       -1.04765369308668
C           -8.10328696621496       -2.98276321108961       -0.09585496226355
C           -9.62375640806624       -1.36334822919208        1.02896657065425
H           -7.59215721535158       -3.21390354993110        0.83651211525254
H           -8.96352345536910       -3.63729616871201       -0.20248749439335
H           -7.41969497510991       -3.14316747881993       -0.92561825805525
O           -9.20912254316670       -0.60595644088459        2.03746583642287
O          -10.70189213046655       -1.88804480144399        0.99536746042351
