42
 energy: -62.486133512488 gnorm: 0.000479769677 xtb: 6.7.1 (edcfbbe)
N           -0.82326433108602       -0.26339404754914        0.31711451556977
H            0.08432684609028       -0.47330974640531       -0.07987505260798
H           -0.88764210031473       -0.74923403221798        1.20761148145685
H           -1.96581825050993        1.23251640998396        0.69172765190591
C           -1.89973259395494       -0.70593247380675       -0.56753783667477
H           -1.64477460276562       -0.37251769751555       -1.58226192675535
C           -2.13246865026692       -2.21572279416646       -0.57492122053997
C           -3.15360174203132        0.05642241841290       -0.15900934463308
H           -2.39903850086082       -2.55739804397754        0.42304377370372
H           -2.94662418764513       -2.46282433188791       -1.24746364493378
H           -1.23254331773713       -2.73484897061962       -0.89904235694191
O           -2.93083079394430        1.18203093017181        0.53275699010162
N           -4.28542479056246       -0.39444397851419       -0.47437158850844
H           -5.38229826322207       -1.22989653801254       -1.86597088490119
C           -5.51486041986998        0.30501265548843       -0.16149386378969
H           -5.60270112038700        0.47701945640561        0.91531812897788
C           -5.61031551665323        1.65235170308533       -0.90465408018177
C           -6.62845298142012       -0.60451623590341       -0.63073954749715
H           -4.78083496009870        2.27819544221013       -0.57201183848375
H           -5.48036316414815        1.45893752104187       -1.97375687265479
C           -6.92843315139147        2.40111270964586       -0.68600348407262
O           -6.34105384756342       -1.33299192328138       -1.71806593817071
H           -7.75752362725196        1.74993627119987       -0.98013028507992
C           -7.11825771961770        2.80034096897400        0.77479629496416
C           -6.95358756399694        3.64453410481000       -1.57393702291127
H           -6.28882026620010        3.42084549793827        1.10827709074756
H           -8.03981925491588        3.36527121286131        0.89010025060814
H           -7.17812305790360        1.92531179520938        1.41568587340815
H           -6.84648033810410        3.37489936327368       -2.62229618435307
H           -7.89437674657316        4.17547452080021       -1.45299086047308
H           -6.14196974623293        4.31851084682015       -1.30708152052677
N           -7.71340744344117       -0.65786941040257        0.00834009396799
H           -8.93426728258622        0.26558870114209        0.99211352939458
C           -8.80645236762260       -1.49962829848637       -0.42712693153979
H           -8.85727236100514       -1.58568745187362       -1.51991822858409
C           -8.68916676698993       -2.90277999684463        0.17754575524767
C          -10.10762203923640       -0.86012856965428        0.07879752970570
H           -8.59510125428591       -2.83260272673409        1.25928220288562
H           -9.57871177025364       -3.47604144155069       -0.06763316583487
H           -7.81156114348691       -3.40488955724263       -0.22222828055393
O           -9.91068690645194        0.14678205839837        0.92189113392380
O          -11.19623316336417       -1.24646217637710       -0.24494533365392
