42
 energy: -62.486133512443 gnorm: 0.000479463996 xtb: 6.7.1 (edcfbbe)
N           -2.62320314267554       -1.49071325186913        1.96584825527060
H           -1.78334305021625       -1.05140009702675        2.31778772149342
H           -2.50671505579631       -2.49499266260969        2.01026548735714
H           -4.29501407367090       -0.90715658906866        2.43123336892364
C           -2.95388061784534       -1.05423601833130        0.60709712082120
H           -2.18281610662227       -0.40208191139603        0.18426186167734
C           -3.17642275143049       -2.24113706977735       -0.33049771302608
C           -4.25692762985193       -0.26609039759848        0.68493513116478
H           -3.93478274977908       -2.90421949882752        0.08026020205599
H           -3.51642997934599       -1.87732644995884       -1.29458952616407
H           -2.25105495303785       -2.79841522725168       -0.46467685360848
O           -4.90781779407525       -0.38950830909761        1.85309692111480
N           -4.62292807562245        0.42127798977110       -0.30204799079421
H           -8.18234493701020        1.38492640625067       -1.16151962367898
C           -5.91187235110153        1.07023197688402       -0.31538704431190
H           -6.08039092837556        1.60000989018315        0.63809935286201
C           -5.93422318423471        2.07053901613456       -1.48551597132854
C           -7.02738745085778        0.04362076843975       -0.40738230430856
H           -4.89539633195182        2.23665021050538       -1.77407905813698
H           -6.42746190441304        1.61579343041057       -2.34939859995724
C           -6.58214845718572        3.42313408924043       -1.15356301428992
O           -8.21506393511346        0.45473030380598       -0.90408451808766
H           -7.51202873934052        3.26499926162069       -0.58942936356380
C           -5.64854329044627        4.26853260152192       -0.28995657350986
C           -6.92463487220801        4.17104998693902       -2.44119794764447
H           -4.73772346163381        4.49828573672875       -0.83796064625993
H           -6.12871255565711        5.20377296075653       -0.01127670258214
H           -5.37340573149569        3.74108988229031        0.61983909301044
H           -7.63203822413307        3.60824172216624       -3.04726936754443
H           -7.36543256799461        5.13880918678696       -2.21407049007751
H           -6.02504819113684        4.33417522040284       -3.03005511464376
N           -6.83203228768299       -1.12534338099614        0.00876593508258
H           -6.00024397672337       -2.07116699252208        1.32420160592990
C           -7.83430375889513       -2.16105368420755       -0.03784109882579
H           -8.79864037166812       -1.80717468150001        0.35440545384361
C           -8.04633455764955       -2.69767190704648       -1.45535070826067
C           -7.34436936048801       -3.29691783737106        0.87504027282845
H           -7.08636202017147       -2.95574296002579       -1.89787771718194
H           -8.66792133562858       -3.58731197602290       -1.40847650004093
H           -8.53145122347492       -1.94580264999833       -2.07216113772683
O           -6.24858023283875       -2.99925878213814        1.56155401960085
O           -7.90075907192439       -4.35717450018896        0.95790960747170
