42
 energy: -62.486133515089 gnorm: 0.000479683816 xtb: 6.7.1 (edcfbbe)
N           -0.82319197633825       -0.05914804169540       -0.93351744735240
H           -0.09233895936990       -0.45962551725020       -1.50844817764970
H           -0.50194085412986       -0.07852785925045        0.03045066460093
H           -1.98974432216336        1.46936912302708       -0.95088292370025
C           -2.06631579773233       -0.81770969426402       -1.06036132280287
H           -2.24389231183696       -0.97023375826585       -2.13320278451270
C           -2.06365182035779       -2.17347568905749       -0.35780255571568
C           -3.19420094442361        0.08458447384751       -0.56744453282105
H           -1.91341016750428       -2.04328852589060        0.71215166313158
H           -3.01557682420437       -2.66838776796598       -0.51818741005749
H           -1.26675247362943       -2.80066761239557       -0.75251193209717
O           -2.92070096781330        1.39596251815165       -0.65526407866323
N           -4.24691600113633       -0.44923759727001       -0.14132920635615
H           -5.27554948516218       -2.01001668094340        0.95687459758936
C           -5.45173412192749        0.22289508925132        0.30572248123658
H           -5.34359496499818        0.41145925225564        1.38425167612829
C           -5.81969021201414        1.52495188051170       -0.41096514017034
C           -6.50933909322404       -0.85255459774835        0.12745525085496
H           -4.95465766627585        2.18689260232562       -0.40611013464178
H           -6.05050343060231        1.27580921233944       -1.44796601398372
C           -7.00694626819656        2.25972929695581        0.22354545415744
O           -6.21376329539401       -2.02901456852540        0.71297920553001
H           -7.79107652634687        1.53261495280971        0.45218990468648
C           -6.59682106677744        2.96267839873850        1.51637156244729
C           -7.56331924179015        3.28244356587096       -0.76563946120331
H           -5.80982099788767        3.68816562643086        1.31980904495884
H           -7.44657859294009        3.48815180042146        1.94617534576738
H           -6.23281812107458        2.25399952368137        2.25653078769553
H           -7.90975213238409        2.79639741819485       -1.67435722977876
H           -8.40062890072372        3.82001636398298       -0.32686328005475
H           -6.79513385539157        4.00519756296522       -1.03300888742368
N           -7.51460106201067       -0.66558069775992       -0.60399495523444
H           -8.41095940001120        0.35478087412426       -1.79033949614847
C           -8.49265599867548       -1.69989620275695       -0.84832553767242
H           -8.01854304894763       -2.65953891314655       -1.09081005030039
C           -9.42396777082096       -1.89984512340604        0.35243148091713
C           -9.33793561579950       -1.24067163644094       -2.04642976022819
H           -9.87286475219010       -0.95017144317000        0.63743542675571
H          -10.21132841326324       -2.59835838360469        0.08362316729690
H           -8.86099239550651       -2.29415733637052        1.19467677180255
O           -9.12327020712619        0.02380810560387       -2.38853360412289
O          -10.12871120538708       -1.95182584357493       -2.60144351372769
