42
 energy: -62.486133503000 gnorm: 0.000482310520 xtb: 6.7.1 (edcfbbe)
N           -0.90328891358990       -1.00912980654270        0.33775893329646
H           -0.55006202986422       -0.20046236632438        0.83852924843800
H           -0.11350069249480       -1.48609892245911       -0.08015837691200
H           -2.42416518778980       -1.52176610445429        1.32925679091692
C           -1.86962865410557       -0.60678691082714       -0.68444512003151
H           -1.61686611282961        0.33353781698338       -1.19113777878564
C           -2.01771907321491       -1.71308369491457       -1.72935495726402
C           -3.20692139271247       -0.42931102614407        0.01268407723483
H           -2.27587801419634       -2.65426493286563       -1.24811965534820
H           -2.80269995571487       -1.44697028412970       -2.43051603923679
H           -1.08641341563272       -1.84338015397051       -2.27636421536751
O           -3.31779779173947       -1.14563304117552        1.16721094915673
N           -4.07234931069263        0.32034211615924       -0.48840711627469
H           -4.99805840006524       -1.71536147292435        0.89913955811941
C           -5.39969344833550        0.55376663660657        0.04441104255202
H           -5.32357531835308        0.76563554643989        1.12557564896961
C           -5.97342914359028        1.77010045036258       -0.68672583490160
C           -6.29114440601933       -0.66948623492157       -0.06955431969691
H           -5.16321877195184        2.49134366883704       -0.80426177650050
H           -6.27584440811990        1.44675065734051       -1.68219656821499
C           -7.15221335192166        2.43791375198381        0.03018412214808
O           -5.87206703561992       -1.81813133303752        0.48479402600562
H           -7.83314573774145        1.65759044110896        0.38174343334929
C           -6.68026647137718        3.25596704505675        1.23115067198599
C           -7.90568421445042        3.34216511790562       -0.94360427505919
H           -6.01142848683970        4.05108321116233        0.90762032655681
H           -7.52960417187759        3.70910321141446        1.73722135509075
H           -6.15190759790784        2.63695210203794        1.95221202891908
H           -8.29552692416145        2.77272741558479       -1.78347771394846
H           -8.74135799616593        3.82628898105354       -0.44368436506494
H           -7.24396118045803        4.11506324712557       -1.32921950901722
N           -7.41253712500479       -0.55633515268950       -0.63366701434575
H           -8.50338257565526        0.36391768686160       -1.72972653583119
C           -8.33308377076571       -1.66282943830765       -0.75009229134287
H           -7.82514512054066       -2.59621199325486       -1.02349053855315
C           -9.11332689498049       -1.88619541061227        0.55046344405187
C           -9.33512054309103       -1.29642618959292       -1.85590283332245
H           -9.59609178458536       -0.96039781996081        0.85776809229077
H           -9.87247856551937       -2.64593827715076        0.38768595141072
H           -8.43722832264324       -2.21248545964116        1.33681494534411
O           -9.25128010440410       -0.02937757962655       -2.24167362509664
O          -10.12709884399980       -2.07621135239079       -2.30750911816094
