42
 energy: -62.486158034881 gnorm: 0.000808354767 xtb: 6.7.1 (edcfbbe)
N           -1.76463527392653       -1.10316479037396       -2.98546918652575
H           -0.77172644201018       -1.26095087929761       -3.10583315322894
H           -2.09890078219448       -0.61068101685860       -3.80954619415422
H           -3.26388419661771       -2.08853892308231       -2.48815948985931
C           -2.03247730562181       -0.30617181797889       -1.78792873302471
H           -1.40589861543645       -0.70637865436949       -0.98071435329988
C           -1.76086030287818        1.18717260170532       -1.94321672295869
C           -3.48049672315362       -0.57200440948245       -1.37929197974400
H           -2.35318512318491        1.59245699128709       -2.76139967412848
H           -2.04210623902237        1.69994019490622       -1.03002254410126
H           -0.70680330972795        1.36312591014872       -2.14739163636710
O           -3.96749501428215       -1.73524200907922       -1.89964102119651
N           -4.05720054858710        0.25034163808923       -0.64369149883396
H           -5.39912356029721       -1.99430565438069       -1.04611884174078
C           -5.36661540658486        0.35637041586897       -0.06661924469014
H           -5.21647404914813        0.90836505570468        0.86609013867462
C           -6.16943115734699        1.25321632143484       -1.04866069927223
C           -6.21630618157517       -0.85583036892395        0.27387949276598
H           -5.50193750555127        2.06323523652962       -1.35121059080557
H           -6.39215514995515        0.65539541989340       -1.93728281506721
C           -7.46905556790200        1.85055470980619       -0.50541476723896
O           -6.11291442635981       -2.01289335480744       -0.38170728461984
H           -8.10177570875810        1.04055591724827       -0.13333907556481
C           -7.21094940515013        2.83334729918922        0.63296540242655
C           -8.21098136234804        2.55443476048277       -1.64139914623258
H           -6.59013013107356        3.65807144691554        0.28856359644895
H           -8.15217096948513        3.23862339617957        0.99517396532790
H           -6.71051908978764        2.34840358300832        1.46613644284378
H           -8.43498795225487        1.86021741524527       -2.44826218973946
H           -9.14847721100068        2.96712475088042       -1.27789174875774
H           -7.61066470194425        3.36817110889917       -2.04372571054661
N           -7.09394465865239       -0.66335800934647        1.16670905141600
H           -8.08234808784279        0.46795585703528        2.18994953438880
C           -8.03242886058745       -1.70085074444902        1.53220128715644
H           -8.42339803559334       -2.22848251709233        0.65225528526614
C           -7.40392294180124       -2.72743767823915        2.48146800930247
C           -9.20025309038081       -1.02211926954552        2.26083118210147
H           -6.96864052808517       -2.22009320988917        3.34024477179891
H           -8.17079573101207       -3.41627958161974        2.82429080729320
H           -6.62476396976191       -3.28103093254434        1.96357195869927
O           -8.96867966290554        0.25002630445999        2.56367970607344
O          -10.21667625809310       -1.59331844205579        2.54486257943660
