42
 energy: -62.486147247058 xtb: 6.7.1 (edcfbbe)
N           -0.85145085634726       -0.33951531919949        0.49148286211665
H            0.09084547064352       -0.47384624390846        0.14580752476641
H           -0.99009706471402       -0.98703329663871        1.26247258945703
H           -2.04796113497847        1.08973790074935        1.01536849682043
C           -1.83764133430204       -0.59682760391351       -0.55638591041452
H           -1.50764924611375       -0.05348133631466       -1.45187247171374
C           -2.02648348118057       -2.07235394236408       -0.90479403634587
C           -3.13757872951990        0.05254938804857       -0.10519031268001
H           -2.41786844554864       -2.61434461537648       -0.04663163100176
H           -2.72837473115985       -2.17384337115150       -1.72557971454128
H           -1.07566213084632       -2.51304623636843       -1.19856947420640
O           -2.99558587916575        1.05295006627995        0.77398365739013
N           -4.23825413562849       -0.34977168973031       -0.56536703362571
H           -5.25434566339372       -1.55919901469357       -1.53398313324434
C           -5.48825527669191        0.27202834217000       -0.17730171510270
H           -5.51573616593532        0.47696751799516        0.89762396880264
C           -5.66238103521670        1.59568261718172       -0.94995404975208
C           -6.57967820935089       -0.71165621158651       -0.54439927071691
H           -4.81893254482661        2.23648625345388       -0.68349531318297
H           -5.59046952085641        1.37107216644955       -2.01779549615633
C           -6.96842160348052        2.34587010017029       -0.67994334908966
O           -6.21764431131514       -1.67681226359127       -1.39628343978087
H           -7.80694221891976        1.69587382669029       -0.94434751826984
C           -7.10195572064471        2.74594965207275        0.78674123897277
C           -7.02386877128145        3.58846173070935       -1.56786412472966
H           -6.25725771451668        3.36126850386818        1.09037478191240
H           -8.01511206750022        3.31658878952541        0.93601291213808
H           -7.14232974892554        1.87025146124570        1.42830316560032
H           -6.95581124251003        3.31705388540490       -2.61891498211073
H           -7.95915853184807        4.12014544232083       -1.41282506960676
H           -6.20252580887829        4.26251737282304       -1.33251630325619
N           -7.73916676341622       -0.56996056185118       -0.06760920944038
H           -8.99121510615226        0.47507909777784        0.73780186467706
C           -8.81720721900594       -1.46305884140771       -0.43380289815959
H           -8.82512211018606       -1.67021553191316       -1.51178582631650
C           -8.73776138384987       -2.79420357976104        0.32124389385116
C          -10.13330854824075       -0.76748615427301       -0.05735805107680
H           -8.68010422970828       -2.61020874171629        1.39225564426537
H           -9.62686613974047       -3.38070060685275        0.10751736386228
H           -7.85508127516364       -3.34530251340178        0.00686940248158
O           -9.96457208740986        0.34163162508028        0.65251852986595
O          -11.21119854229187       -1.19732392853972       -0.36287257248693
42
 energy: -62.486003992045 xtb: 6.7.1 (edcfbbe)
N           -0.84662035585349       -0.33568724938280        0.47961954947419
H            0.09495797144851       -0.46889737407026        0.13157366387665
H           -0.98404751123388       -0.98632881054926        1.24820349850537
H           -2.04001948575179        1.09962533943809        1.00369959687271
C           -1.83481704822766       -0.58769677907248       -0.56760588850298
H           -1.50753549220554       -0.03819939186459       -1.46042326293060
C           -2.02289478742462       -2.06111263277270       -0.92541786638207
C           -3.13377569963336        0.05821513734074       -0.10903798856333
H           -2.41351286874019       -2.60954718112765       -0.07094729347834
H           -2.72408814801208       -2.15766817086128       -1.74748920134025
H           -1.07157349714178       -2.49883421851983       -1.22202718165682
O           -2.98855309808743        1.06150380933638        0.76636878806951
N           -4.23649377077684       -0.35019412319468       -0.55867359422311
H           -5.22821124324032       -1.62481501622028       -1.43207468908419
C           -5.48738670046248        0.26446302831191       -0.16204686234086
H           -5.50853359840509        0.47345801462943        0.91243943518489
C           -5.66659460455550        1.58563075461212       -0.93858379237372
C           -6.57498750136888       -0.73003761727410       -0.51630541102906
H           -4.82267794442592        2.22739031943881       -0.67546995750307
H           -5.59519037598591        1.35680439276113       -2.00551529573895
C           -6.97109271321997        2.33945983919951       -0.67241753419702
O           -6.19391781090094       -1.74057038805421       -1.30432776914339
H           -7.80977004631157        1.69098682990141       -0.93893293886628
C           -7.10665170165473        2.74039607356532        0.79373738702123
C           -7.02192781433352        3.58167164909384       -1.56122471639503
H           -6.25928506779304        3.35080906789188        1.09994052079604
H           -8.01683092400098        3.31639281128959        0.94055624166008
H           -7.15380359827606        1.86468518091422        1.43489196481534
H           -6.94664894414526        3.31001663341274       -2.61171695060303
H           -7.95909176370067        4.11194653789719       -1.41255601619788
H           -6.20326384511053        4.25724927283892       -1.32090747291773
N           -7.75190363604629       -0.54861477466941       -0.09880659635164
H           -9.00788758114940        0.49681024236041        0.69790779668157
C           -8.82481692362600       -1.45355754196307       -0.45107979160743
H           -8.83135168706365       -1.67350153139346       -1.52648286543520
C           -8.74107397156186       -2.77621313495136        0.31884360239138
C          -10.14421946103322       -0.75991487497966       -0.08257353576393
H           -8.68558231665702       -2.58047572350828        1.38797353905123
H           -9.62762325942627       -3.36849999822300        0.11059781281492
H           -7.85610287402936       -3.32747013632278        0.01147130257142
O           -9.98064631697685        0.35593274788682        0.61783464557164
O          -11.22014324301850       -1.19763687868703       -0.38407988209654
42
 energy: -62.486003992063 xtb: 6.7.1 (edcfbbe)
N           -0.84662035585349       -0.33568724938280        0.47961954947419
H            0.09495797144851       -0.46889737407026        0.13157366387665
H           -0.98404751123388       -0.98632881054926        1.24820349850537
H           -2.04001948575179        1.09962533943809        1.00369959687271
C           -1.83481704822766       -0.58769677907248       -0.56760588850298
H           -1.50753549220554       -0.03819939186459       -1.46042326293060
C           -2.02289478742462       -2.06111263277270       -0.92541786638207
C           -3.13377569963336        0.05821513734074       -0.10903798856333
H           -2.41351286874019       -2.60954718112765       -0.07094729347834
H           -2.72408814801208       -2.15766817086128       -1.74748920134025
H           -1.07157349714178       -2.49883421851983       -1.22202718165682
O           -2.98855309808743        1.06150380933638        0.76636878806951
N           -4.23649377077684       -0.35019412319468       -0.55867359422311
H           -5.22821124324032       -1.62481501622028       -1.43207468908419
C           -5.48738670046248        0.26446302831191       -0.16204686234086
H           -5.50853359840509        0.47345801462943        0.91243943518489
C           -5.66659460455550        1.58563075461212       -0.93858379237372
C           -6.57498750136888       -0.73003761727410       -0.51630541102906
H           -4.82267794442592        2.22739031943881       -0.67546995750307
H           -5.59519037598591        1.35680439276113       -2.00551529573895
C           -6.97109271321997        2.33945983919951       -0.67241753419702
O           -6.19391781090094       -1.74057038805421       -1.30432776914339
H           -7.80977004631157        1.69098682990141       -0.93893293886628
C           -7.10665170165473        2.74039607356532        0.79373738702123
C           -7.02192781433352        3.58167164909384       -1.56122471639503
H           -6.25928506779304        3.35080906789188        1.09994052079604
H           -8.01683092400098        3.31639281128959        0.94055624166008
H           -7.15380359827606        1.86468518091422        1.43489196481534
H           -6.94664894414526        3.31001663341274       -2.61171695060303
H           -7.95909176370067        4.11194653789719       -1.41255601619788
H           -6.20326384511053        4.25724927283892       -1.32090747291773
N           -7.75190363604629       -0.54861477466941       -0.09880659635164
H           -9.00788758114940        0.49681024236041        0.69790779668157
C           -8.82481692362600       -1.45355754196307       -0.45107979160743
H           -8.83135168706365       -1.67350153139346       -1.52648286543520
C           -8.74107397156186       -2.77621313495136        0.31884360239138
C          -10.14421946103322       -0.75991487497966       -0.08257353576393
H           -8.68558231665702       -2.58047572350828        1.38797353905123
H           -9.62762325942627       -3.36849999822300        0.11059781281492
H           -7.85610287402936       -3.32747013632278        0.01147130257142
O           -9.98064631697685        0.35593274788682        0.61783464557164
O          -11.22014324301850       -1.19763687868703       -0.38407988209654
42
 energy: -62.486003992063 xtb: 6.7.1 (edcfbbe)
N           -0.84662035585349       -0.33568724938280        0.47961954947419
H            0.09495797144851       -0.46889737407026        0.13157366387665
H           -0.98404751123388       -0.98632881054926        1.24820349850537
H           -2.04001948575179        1.09962533943809        1.00369959687271
C           -1.83481704822766       -0.58769677907248       -0.56760588850298
H           -1.50753549220554       -0.03819939186459       -1.46042326293060
C           -2.02289478742462       -2.06111263277270       -0.92541786638207
C           -3.13377569963336        0.05821513734074       -0.10903798856333
H           -2.41351286874019       -2.60954718112765       -0.07094729347834
H           -2.72408814801208       -2.15766817086128       -1.74748920134025
H           -1.07157349714178       -2.49883421851983       -1.22202718165682
O           -2.98855309808743        1.06150380933638        0.76636878806951
N           -4.23649377077684       -0.35019412319468       -0.55867359422311
H           -5.22821124324032       -1.62481501622028       -1.43207468908419
C           -5.48738670046248        0.26446302831191       -0.16204686234086
H           -5.50853359840509        0.47345801462943        0.91243943518489
C           -5.66659460455550        1.58563075461212       -0.93858379237372
C           -6.57498750136888       -0.73003761727410       -0.51630541102906
H           -4.82267794442592        2.22739031943881       -0.67546995750307
H           -5.59519037598591        1.35680439276113       -2.00551529573895
C           -6.97109271321997        2.33945983919951       -0.67241753419702
O           -6.19391781090094       -1.74057038805421       -1.30432776914339
H           -7.80977004631157        1.69098682990141       -0.93893293886628
C           -7.10665170165473        2.74039607356532        0.79373738702123
C           -7.02192781433352        3.58167164909384       -1.56122471639503
H           -6.25928506779304        3.35080906789188        1.09994052079604
H           -8.01683092400098        3.31639281128959        0.94055624166008
H           -7.15380359827606        1.86468518091422        1.43489196481534
H           -6.94664894414526        3.31001663341274       -2.61171695060303
H           -7.95909176370067        4.11194653789719       -1.41255601619788
H           -6.20326384511053        4.25724927283892       -1.32090747291773
N           -7.75190363604629       -0.54861477466941       -0.09880659635164
H           -9.00788758114940        0.49681024236041        0.69790779668157
C           -8.82481692362600       -1.45355754196307       -0.45107979160743
H           -8.83135168706365       -1.67350153139346       -1.52648286543520
C           -8.74107397156186       -2.77621313495136        0.31884360239138
C          -10.14421946103322       -0.75991487497966       -0.08257353576393
H           -8.68558231665702       -2.58047572350828        1.38797353905123
H           -9.62762325942627       -3.36849999822300        0.11059781281492
H           -7.85610287402936       -3.32747013632278        0.01147130257142
O           -9.98064631697685        0.35593274788682        0.61783464557164
O          -11.22014324301850       -1.19763687868703       -0.38407988209654
