42
 energy: -62.486184545966 xtb: 6.7.1 (edcfbbe)
N           -0.86793675442049       -0.37344389692956        0.53228790563799
H            0.07987659173812       -0.49579396332189        0.19758526592563
H           -1.01751196820708       -1.04352695422192        1.28166006609787
H           -2.06993735925041        1.03325758508896        1.08457039550545
C           -1.83775741371860       -0.60020348307038       -0.53770119560499
H           -1.49175618319129       -0.03622047370921       -1.41410497343398
C           -2.02583351261924       -2.06610375825869       -0.92514918152175
C           -3.14294974361657        0.04232462333406       -0.09162732376426
H           -2.42685046149286       -2.62872781802556       -0.08486482111617
H           -2.71975134415351       -2.14513710113181       -1.75505657517256
H           -1.07288318696562       -2.50132438762628       -1.22016559583079
O           -3.01342402241052        1.01026166708597        0.82514104840620
N           -4.23668771570162       -0.33321626201418       -0.58986189342974
H           -5.26834693087800       -1.50820533520073       -1.61055150631370
C           -5.48730576493326        0.28351626737512       -0.19597467710098
H           -5.51558304896000        0.48174444896112        0.88013980327376
C           -5.66482953873419        1.61118929348989       -0.96067002252646
C           -6.57827691557446       -0.69732840394364       -0.56898151472600
H           -4.82032816636084        2.25117645166905       -0.69535784823732
H           -5.59886075568832        1.39330421773163       -2.03026069538835
C           -6.97083658837300        2.35663422833365       -0.67711166443675
O           -6.22847221036416       -1.63072569980955       -1.46068087480463
H           -7.80952177906027        1.70067052887535       -0.92608060991381
C           -7.08598770507437        2.76298620592392        0.78940370404706
C           -7.04617557255263        3.59458815293635       -1.56987037787226
H           -6.24118081992315        3.38525377826197        1.07793300473779
H           -8.00068452163630        3.32819782620387        0.94915480805740
H           -7.11132909403594        1.89037597853652        1.43578823312007
H           -6.99018935574907        3.31870221107549       -2.62039215476308
H           -7.98294246422972        4.12076429547838       -1.40501934116119
H           -6.22646623003491        4.27518573443793       -1.34843463689986
N           -7.72733071791572       -0.57955559200174       -0.06167966080684
H           -8.97310299635994        0.44249242117131        0.78750259964245
C           -8.80850544338469       -1.46623873533962       -0.43435105879070
H           -8.82506589294303       -1.65808932004825       -1.51493576286939
C           -8.72231087346462       -2.80744406475190        0.30195594538396
C          -10.12109974869872       -0.77684908557042       -0.03574275972389
H           -8.65784722974813       -2.63813681752149        1.37498281824208
H           -9.61155922876294       -3.39289616646263        0.08595654791805
H           -7.84065225680483       -3.35258756234255       -0.02556929261959
O           -9.94668220502617        0.31181723249493        0.70402316340165
O          -11.20131413071761       -1.19471414716498       -0.34895429056136
42
 energy: -62.486184545966 xtb: 6.7.1 (edcfbbe)
N           -0.86793675442049       -0.37344389692956        0.53228790563799
H            0.07987659173812       -0.49579396332189        0.19758526592563
H           -1.01751196820708       -1.04352695422192        1.28166006609787
H           -2.06993735925041        1.03325758508896        1.08457039550545
C           -1.83775741371860       -0.60020348307038       -0.53770119560499
H           -1.49175618319129       -0.03622047370921       -1.41410497343398
C           -2.02583351261924       -2.06610375825869       -0.92514918152175
C           -3.14294974361657        0.04232462333406       -0.09162732376426
H           -2.42685046149286       -2.62872781802556       -0.08486482111617
H           -2.71975134415351       -2.14513710113181       -1.75505657517256
H           -1.07288318696562       -2.50132438762628       -1.22016559583079
O           -3.01342402241052        1.01026166708597        0.82514104840620
N           -4.23668771570162       -0.33321626201418       -0.58986189342974
H           -5.26834693087800       -1.50820533520073       -1.61055150631370
C           -5.48730576493326        0.28351626737512       -0.19597467710098
H           -5.51558304896000        0.48174444896112        0.88013980327376
C           -5.66482953873419        1.61118929348989       -0.96067002252646
C           -6.57827691557446       -0.69732840394364       -0.56898151472600
H           -4.82032816636084        2.25117645166905       -0.69535784823732
H           -5.59886075568832        1.39330421773163       -2.03026069538835
C           -6.97083658837300        2.35663422833365       -0.67711166443675
O           -6.22847221036416       -1.63072569980955       -1.46068087480463
H           -7.80952177906027        1.70067052887535       -0.92608060991381
C           -7.08598770507437        2.76298620592392        0.78940370404706
C           -7.04617557255263        3.59458815293635       -1.56987037787226
H           -6.24118081992315        3.38525377826197        1.07793300473779
H           -8.00068452163630        3.32819782620387        0.94915480805740
H           -7.11132909403594        1.89037597853652        1.43578823312007
H           -6.99018935574907        3.31870221107549       -2.62039215476308
H           -7.98294246422972        4.12076429547838       -1.40501934116119
H           -6.22646623003491        4.27518573443793       -1.34843463689986
N           -7.72733071791572       -0.57955559200174       -0.06167966080684
H           -8.97310299635994        0.44249242117131        0.78750259964245
C           -8.80850544338469       -1.46623873533962       -0.43435105879070
H           -8.82506589294303       -1.65808932004825       -1.51493576286939
C           -8.72231087346462       -2.80744406475190        0.30195594538396
C          -10.12109974869872       -0.77684908557042       -0.03574275972389
H           -8.65784722974813       -2.63813681752149        1.37498281824208
H           -9.61155922876294       -3.39289616646263        0.08595654791805
H           -7.84065225680483       -3.35258756234255       -0.02556929261959
O           -9.94668220502617        0.31181723249493        0.70402316340165
O          -11.20131413071761       -1.19471414716498       -0.34895429056136
42
 energy: -62.486184545966 xtb: 6.7.1 (edcfbbe)
N           -0.86793675442049       -0.37344389692956        0.53228790563799
H            0.07987659173812       -0.49579396332189        0.19758526592563
H           -1.01751196820708       -1.04352695422192        1.28166006609787
H           -2.06993735925041        1.03325758508896        1.08457039550545
C           -1.83775741371860       -0.60020348307038       -0.53770119560499
H           -1.49175618319129       -0.03622047370921       -1.41410497343398
C           -2.02583351261924       -2.06610375825869       -0.92514918152175
C           -3.14294974361657        0.04232462333406       -0.09162732376426
H           -2.42685046149286       -2.62872781802556       -0.08486482111617
H           -2.71975134415351       -2.14513710113181       -1.75505657517256
H           -1.07288318696562       -2.50132438762628       -1.22016559583079
O           -3.01342402241052        1.01026166708597        0.82514104840620
N           -4.23668771570162       -0.33321626201418       -0.58986189342974
H           -5.26834693087800       -1.50820533520073       -1.61055150631370
C           -5.48730576493326        0.28351626737512       -0.19597467710098
H           -5.51558304896000        0.48174444896112        0.88013980327376
C           -5.66482953873419        1.61118929348989       -0.96067002252646
C           -6.57827691557446       -0.69732840394364       -0.56898151472600
H           -4.82032816636084        2.25117645166905       -0.69535784823732
H           -5.59886075568832        1.39330421773163       -2.03026069538835
C           -6.97083658837300        2.35663422833365       -0.67711166443675
O           -6.22847221036416       -1.63072569980955       -1.46068087480463
H           -7.80952177906027        1.70067052887535       -0.92608060991381
C           -7.08598770507437        2.76298620592392        0.78940370404706
C           -7.04617557255263        3.59458815293635       -1.56987037787226
H           -6.24118081992315        3.38525377826197        1.07793300473779
H           -8.00068452163630        3.32819782620387        0.94915480805740
H           -7.11132909403594        1.89037597853652        1.43578823312007
H           -6.99018935574907        3.31870221107549       -2.62039215476308
H           -7.98294246422972        4.12076429547838       -1.40501934116119
H           -6.22646623003491        4.27518573443793       -1.34843463689986
N           -7.72733071791572       -0.57955559200174       -0.06167966080684
H           -8.97310299635994        0.44249242117131        0.78750259964245
C           -8.80850544338469       -1.46623873533962       -0.43435105879070
H           -8.82506589294303       -1.65808932004825       -1.51493576286939
C           -8.72231087346462       -2.80744406475190        0.30195594538396
C          -10.12109974869872       -0.77684908557042       -0.03574275972389
H           -8.65784722974813       -2.63813681752149        1.37498281824208
H           -9.61155922876294       -3.39289616646263        0.08595654791805
H           -7.84065225680483       -3.35258756234255       -0.02556929261959
O           -9.94668220502617        0.31181723249493        0.70402316340165
O          -11.20131413071761       -1.19471414716498       -0.34895429056136
42
 energy: -62.486184545966 xtb: 6.7.1 (edcfbbe)
N           -0.86793675442049       -0.37344389692956        0.53228790563799
H            0.07987659173812       -0.49579396332189        0.19758526592563
H           -1.01751196820708       -1.04352695422192        1.28166006609787
H           -2.06993735925041        1.03325758508896        1.08457039550545
C           -1.83775741371860       -0.60020348307038       -0.53770119560499
H           -1.49175618319129       -0.03622047370921       -1.41410497343398
C           -2.02583351261924       -2.06610375825869       -0.92514918152175
C           -3.14294974361657        0.04232462333406       -0.09162732376426
H           -2.42685046149286       -2.62872781802556       -0.08486482111617
H           -2.71975134415351       -2.14513710113181       -1.75505657517256
H           -1.07288318696562       -2.50132438762628       -1.22016559583079
O           -3.01342402241052        1.01026166708597        0.82514104840620
N           -4.23668771570162       -0.33321626201418       -0.58986189342974
H           -5.26834693087800       -1.50820533520073       -1.61055150631370
C           -5.48730576493326        0.28351626737512       -0.19597467710098
H           -5.51558304896000        0.48174444896112        0.88013980327376
C           -5.66482953873419        1.61118929348989       -0.96067002252646
C           -6.57827691557446       -0.69732840394364       -0.56898151472600
H           -4.82032816636084        2.25117645166905       -0.69535784823732
H           -5.59886075568832        1.39330421773163       -2.03026069538835
C           -6.97083658837300        2.35663422833365       -0.67711166443675
O           -6.22847221036416       -1.63072569980955       -1.46068087480463
H           -7.80952177906027        1.70067052887535       -0.92608060991381
C           -7.08598770507437        2.76298620592392        0.78940370404706
C           -7.04617557255263        3.59458815293635       -1.56987037787226
H           -6.24118081992315        3.38525377826197        1.07793300473779
H           -8.00068452163630        3.32819782620387        0.94915480805740
H           -7.11132909403594        1.89037597853652        1.43578823312007
H           -6.99018935574907        3.31870221107549       -2.62039215476308
H           -7.98294246422972        4.12076429547838       -1.40501934116119
H           -6.22646623003491        4.27518573443793       -1.34843463689986
N           -7.72733071791572       -0.57955559200174       -0.06167966080684
H           -8.97310299635994        0.44249242117131        0.78750259964245
C           -8.80850544338469       -1.46623873533962       -0.43435105879070
H           -8.82506589294303       -1.65808932004825       -1.51493576286939
C           -8.72231087346462       -2.80744406475190        0.30195594538396
C          -10.12109974869872       -0.77684908557042       -0.03574275972389
H           -8.65784722974813       -2.63813681752149        1.37498281824208
H           -9.61155922876294       -3.39289616646263        0.08595654791805
H           -7.84065225680483       -3.35258756234255       -0.02556929261959
O           -9.94668220502617        0.31181723249493        0.70402316340165
O          -11.20131413071761       -1.19471414716498       -0.34895429056136
42
 energy: -62.486184545966 xtb: 6.7.1 (edcfbbe)
N           -0.86793675442049       -0.37344389692956        0.53228790563799
H            0.07987659173812       -0.49579396332189        0.19758526592563
H           -1.01751196820708       -1.04352695422192        1.28166006609787
H           -2.06993735925041        1.03325758508896        1.08457039550545
C           -1.83775741371860       -0.60020348307038       -0.53770119560499
H           -1.49175618319129       -0.03622047370921       -1.41410497343398
C           -2.02583351261924       -2.06610375825869       -0.92514918152175
C           -3.14294974361657        0.04232462333406       -0.09162732376426
H           -2.42685046149286       -2.62872781802556       -0.08486482111617
H           -2.71975134415351       -2.14513710113181       -1.75505657517256
H           -1.07288318696562       -2.50132438762628       -1.22016559583079
O           -3.01342402241052        1.01026166708597        0.82514104840620
N           -4.23668771570162       -0.33321626201418       -0.58986189342974
H           -5.26834693087800       -1.50820533520073       -1.61055150631370
C           -5.48730576493326        0.28351626737512       -0.19597467710098
H           -5.51558304896000        0.48174444896112        0.88013980327376
C           -5.66482953873419        1.61118929348989       -0.96067002252646
C           -6.57827691557446       -0.69732840394364       -0.56898151472600
H           -4.82032816636084        2.25117645166905       -0.69535784823732
H           -5.59886075568832        1.39330421773163       -2.03026069538835
C           -6.97083658837300        2.35663422833365       -0.67711166443675
O           -6.22847221036416       -1.63072569980955       -1.46068087480463
H           -7.80952177906027        1.70067052887535       -0.92608060991381
C           -7.08598770507437        2.76298620592392        0.78940370404706
C           -7.04617557255263        3.59458815293635       -1.56987037787226
H           -6.24118081992315        3.38525377826197        1.07793300473779
H           -8.00068452163630        3.32819782620387        0.94915480805740
H           -7.11132909403594        1.89037597853652        1.43578823312007
H           -6.99018935574907        3.31870221107549       -2.62039215476308
H           -7.98294246422972        4.12076429547838       -1.40501934116119
H           -6.22646623003491        4.27518573443793       -1.34843463689986
N           -7.72733071791572       -0.57955559200174       -0.06167966080684
H           -8.97310299635994        0.44249242117131        0.78750259964245
C           -8.80850544338469       -1.46623873533962       -0.43435105879070
H           -8.82506589294303       -1.65808932004825       -1.51493576286939
C           -8.72231087346462       -2.80744406475190        0.30195594538396
C          -10.12109974869872       -0.77684908557042       -0.03574275972389
H           -8.65784722974813       -2.63813681752149        1.37498281824208
H           -9.61155922876294       -3.39289616646263        0.08595654791805
H           -7.84065225680483       -3.35258756234255       -0.02556929261959
O           -9.94668220502617        0.31181723249493        0.70402316340165
O          -11.20131413071761       -1.19471414716498       -0.34895429056136
42
 energy: -62.486184545966 xtb: 6.7.1 (edcfbbe)
N           -0.86793675442049       -0.37344389692956        0.53228790563799
H            0.07987659173812       -0.49579396332189        0.19758526592563
H           -1.01751196820708       -1.04352695422192        1.28166006609787
H           -2.06993735925041        1.03325758508896        1.08457039550545
C           -1.83775741371860       -0.60020348307038       -0.53770119560499
H           -1.49175618319129       -0.03622047370921       -1.41410497343398
C           -2.02583351261924       -2.06610375825869       -0.92514918152175
C           -3.14294974361657        0.04232462333406       -0.09162732376426
H           -2.42685046149286       -2.62872781802556       -0.08486482111617
H           -2.71975134415351       -2.14513710113181       -1.75505657517256
H           -1.07288318696562       -2.50132438762628       -1.22016559583079
O           -3.01342402241052        1.01026166708597        0.82514104840620
N           -4.23668771570162       -0.33321626201418       -0.58986189342974
H           -5.26834693087800       -1.50820533520073       -1.61055150631370
C           -5.48730576493326        0.28351626737512       -0.19597467710098
H           -5.51558304896000        0.48174444896112        0.88013980327376
C           -5.66482953873419        1.61118929348989       -0.96067002252646
C           -6.57827691557446       -0.69732840394364       -0.56898151472600
H           -4.82032816636084        2.25117645166905       -0.69535784823732
H           -5.59886075568832        1.39330421773163       -2.03026069538835
C           -6.97083658837300        2.35663422833365       -0.67711166443675
O           -6.22847221036416       -1.63072569980955       -1.46068087480463
H           -7.80952177906027        1.70067052887535       -0.92608060991381
C           -7.08598770507437        2.76298620592392        0.78940370404706
C           -7.04617557255263        3.59458815293635       -1.56987037787226
H           -6.24118081992315        3.38525377826197        1.07793300473779
H           -8.00068452163630        3.32819782620387        0.94915480805740
H           -7.11132909403594        1.89037597853652        1.43578823312007
H           -6.99018935574907        3.31870221107549       -2.62039215476308
H           -7.98294246422972        4.12076429547838       -1.40501934116119
H           -6.22646623003491        4.27518573443793       -1.34843463689986
N           -7.72733071791572       -0.57955559200174       -0.06167966080684
H           -8.97310299635994        0.44249242117131        0.78750259964245
C           -8.80850544338469       -1.46623873533962       -0.43435105879070
H           -8.82506589294303       -1.65808932004825       -1.51493576286939
C           -8.72231087346462       -2.80744406475190        0.30195594538396
C          -10.12109974869872       -0.77684908557042       -0.03574275972389
H           -8.65784722974813       -2.63813681752149        1.37498281824208
H           -9.61155922876294       -3.39289616646263        0.08595654791805
H           -7.84065225680483       -3.35258756234255       -0.02556929261959
O           -9.94668220502617        0.31181723249493        0.70402316340165
O          -11.20131413071761       -1.19471414716498       -0.34895429056136
