42
 energy: -62.486133515065 gnorm: 0.000479744418 xtb: 6.7.1 (edcfbbe)
N           -2.89449511347919       -1.69756305072500        1.99487754711662
H           -1.98038274732555       -2.10538793684573        2.15097543903529
H           -3.57257992573035       -2.45687537545308        2.00022601391066
H           -4.06658312644145       -0.30970503516691        2.58968026392674
C           -2.94511137892003       -1.00778711283814        0.70666855319067
H           -2.07963949752630       -0.33352724765764        0.66166799995437
C           -2.93340944439480       -1.92928926482442       -0.51124941213555
C           -4.19093972406709       -0.13652853752369        0.72838264539715
H           -3.72720852726849       -2.66725939187847       -0.42632656071332
H           -3.10187075895076       -1.34299202559705       -1.40752044871587
H           -1.97916330031400       -2.44584278125259       -0.58768781957159
O           -4.63375812727478        0.17983253736714        1.95847360743600
N           -4.73289902183454        0.22106565190145       -0.34913692237059
H           -8.23118891515844        1.37567958485522       -1.17770722818626
C           -5.94980860942555        0.99817501043930       -0.32340888122628
H           -6.06036740199590        1.53442599872808        0.63273666487557
C           -5.93224356793753        1.99913877447563       -1.49189742450900
C           -7.11101278721174        0.02279879096193       -0.40369490539712
H           -4.88820636950523        2.14483624894322       -1.77309473363668
H           -6.42794537104984        1.55698465497886       -2.36056727178597
C           -6.55233015593506        3.36412744494722       -1.15741899466770
O           -8.28980689924982        0.45483236327845       -0.89157505073869
H           -7.49050666496667        3.22295079457580       -0.60286799628633
C           -5.60876118895053        4.18310583434033       -0.27890360828719
C           -6.86502797428999        4.12775643181801       -2.44332302768942
H           -4.68924323937450        4.40022389423934       -0.81771721292718
H           -6.07279341457692        5.12515623080173        0.00428319626995
H           -5.35144777968208        3.64316248805348        0.62909592392373
H           -7.57543081541426        3.58317898295578       -3.06247340264012
H           -7.29000755662898        5.10199254780317       -2.21388693746593
H           -5.95549233566745        4.27845128645959       -3.02008195013224
N           -6.92129050541438       -1.13958473902809        0.03341013246182
H           -5.80046354258845       -2.15739606485197        0.83089237808238
C           -7.88971409228595       -2.20312105627162        0.07404903126115
H           -8.79897039537364       -1.90296079155615        0.61068337558800
C           -8.27706010075683       -2.70957096519215       -1.31823172334597
C           -7.21518504767115       -3.34807543018782        0.85526225006451
H           -7.38000745345085       -2.94733479700001       -1.88670098829869
H           -8.88318070424793       -3.60548404075392       -1.21657311984501
H           -8.84122397001940       -1.94699244357695       -1.84868781791091
O           -5.95325686527903       -3.08009755534805        1.17668229571761
O           -7.76617688119109       -4.37652607641663        1.13162190638176
