42
 energy: -62.486133068140 gnorm: 0.000564260141 xtb: 6.7.1 (edcfbbe)
N           -1.13769655341091       -0.64368993355692       -1.14949009598719
H           -0.37603086642082       -1.30025582613670       -1.26781534671028
H           -0.76273085696680        0.17965224318561       -0.68610934999025
H           -2.55270932348244        0.10971742910671       -2.17555746866631
C           -2.20821732022927       -1.22367673899472       -0.33762635730942
H           -2.40171404500609       -2.23207166036964       -0.72635014301770
C           -1.90778968091316       -1.30855015496394        1.15578965653568
C           -3.46296015129496       -0.40415043486161       -0.60727144438732
H           -1.67786976192850       -0.32011272463086        1.54888216319232
H           -2.78156425878374       -1.68697847495243        1.67522427873012
H           -1.06248062074559       -1.96890028460205        1.33782397903133
O           -3.45592440784028        0.22297951527359       -1.81242206765824
N           -4.40431003001982       -0.42619580684855        0.21883218778432
H           -5.44354924348746       -0.53917242127028       -2.10664243172276
C           -5.63227304682690        0.33091264904068        0.12281034686004
H           -5.98218178089793        0.41883124556375        1.15631943790159
C           -5.52882513771996        1.73162184100785       -0.50159230367208
C           -6.64823890799124       -0.50548449690430       -0.62143275624422
H           -4.69555155784189        2.25396519531106       -0.02538270484287
H           -5.29896930646038        1.64767557056549       -1.56596248946290
C           -6.81292086079510        2.55359251009641       -0.33721090587763
O           -6.30925805969037       -0.90021508543430       -1.86292489522352
H           -7.66288946904423        1.93990992011645       -0.65484178879730
C           -7.03659570928524        2.97915954969103        1.11163456591538
C           -6.74274599860786        3.78856089582953       -1.23477855971071
H           -6.19356071589199        3.56787680656877        1.46800607044832
H           -7.93485155242699        3.58691241453305        1.18688244418985
H           -7.15935683855513        2.11862419675761        1.76310133963257
H           -6.62968721497693        3.50450483860231       -2.27877468243955
H           -7.65060598935036        4.37901439114025       -1.13933174897025
H           -5.89656502791104        4.41295335185716       -0.95453432298832
N           -7.75063421457251       -0.77512491043048       -0.07683629119202
H           -9.02399722401965       -0.35922065453685        1.15576933872403
C           -8.76511736912884       -1.54632076614529       -0.75986828324232
H           -8.83067926258309       -1.29046252722573       -1.82522707623973
C           -8.50303745036993       -3.05040826913830       -0.62708302994609
C          -10.10878261643464       -1.22676076880837       -0.08864611272784
H           -8.39133500278031       -3.31562299674863        0.42223959346465
H           -9.34051808616043       -3.59951885661960       -1.04813054155114
H           -7.59166700601333       -3.31462540922197       -1.15767270718782
O           -9.98612216875168       -0.53785158833937        1.03971691252678
O          -11.16367657080061       -1.58311953407041       -0.53458130675100
