42
 energy: -62.486133520437 gnorm: 0.000478501337 xtb: 6.7.1 (edcfbbe)
N           -0.91892451623011       -1.04023625884616        0.50169132645273
H           -0.66073269077842       -0.32127949271635        1.16952561573425
H           -0.06892502630148       -1.39171417025698        0.07695742986376
H           -2.47955502593071       -1.81686332439526        1.22562207606768
C           -1.82601969469271       -0.50551881340772       -0.51345357403563
H           -1.58956699997059        0.51860719442502       -0.82946168985907
C           -1.83203053311339       -1.42006765694794       -1.73916421930361
C           -3.22405924861111       -0.51299782580738        0.08486628920110
H           -2.07198923453172       -2.44040396778698       -1.44651885671811
H           -2.57540607835950       -1.07144435236794       -2.44971173642209
H           -0.85616563930776       -1.41486406553373       -2.21991129133305
O           -3.37761312488273       -1.45123651975215        1.06424985062715
N           -4.06780661983222        0.30439436856200       -0.33362626635400
H           -4.99830070926181       -1.89341893170649        0.68996795432327
C           -5.45995672723030        0.47696537791398        0.00771864510651
H           -5.50606384596774        0.77618675289845        1.07033568505283
C           -5.99328346479138        1.63100783336013       -0.85361113612235
C           -6.35134481430633       -0.75277462181545       -0.07779120701968
H           -5.14577767143322        2.27731874162193       -1.08527693243087
H           -6.36336401862146        1.21650567674722       -1.79098198731588
C           -7.09389585918056        2.45823718792632       -0.17876298612922
O           -5.90182367054912       -1.94512065022040        0.33179693643411
H           -7.79885011282074        1.77322548642914        0.30118811057510
C           -6.51156197720070        3.38839262200098        0.88430913448176
C           -7.84300122191892        3.28162060296727       -1.22488748825640
H           -5.83464469153880        4.10711196721191        0.42688723783994
H           -7.30664950281060        3.93726988469333        1.38366909429852
H           -5.95952481358410        2.83452623669932        1.63994953672302
H           -8.31357562106660        2.64045626122632       -1.96568507773637
H           -8.61812923090919        3.88047689576616       -0.75274113378271
H           -7.15693896839493        3.95320979861536       -1.73693903753951
N           -7.53622726390870       -0.58569898162922       -0.48133616342280
H           -8.72458069597655        0.39162361887781       -1.42110838533030
C           -8.47696340564452       -1.67995207100730       -0.55413395458561
H           -8.01235631022808       -2.59853341920895       -0.93469234251314
C           -9.10699248917919       -1.97453655732449        0.81176477418181
C           -9.59167095151338       -1.25292764125317       -1.52074022564142
H           -9.53648217698424       -1.06464607648370        1.22658071888766
H           -9.89152176771944       -2.71634419814513        0.69229000880948
H           -8.35084856248815       -2.35410581331311        1.49447422258866
O           -9.52864563015217        0.02750449842101       -1.86465355491465
O          -10.44442065121138       -2.00198148884964       -1.90972030966155
