42
 energy: -62.486133510757 gnorm: 0.000479700076 xtb: 6.7.1 (edcfbbe)
N           -1.30528618111327       -2.02424618045870        0.20012437739756
H           -1.38924250628727       -2.33066449627610        1.16400363362392
H           -0.32374918013482       -2.04622971369145       -0.05039132827924
H           -2.92090823912468       -2.59807765480112       -0.56307093514266
C           -1.85715133677470       -0.68017346909849        0.03248645513483
H           -1.65239211979101       -0.00762929287202        0.87597226074889
C           -1.31497504968057       -0.04924579795690       -1.25034639820518
C           -3.36873285137965       -0.82628905534996       -0.10575042753594
H           -1.51246697714992       -0.69760029462692       -2.10173861183027
H           -1.79862481383095        0.90904838312848       -1.41446306855582
H           -0.24123719409285        0.10723782635171       -1.17179760222861
O           -3.74155937975024       -2.05687129178012       -0.55182411116919
N           -4.08363955370606        0.16393058478048        0.13976434988694
H           -5.36505861750440       -1.79291562552836       -1.15569619567026
C           -5.49098195095881        0.42796260041183        0.09359223405841
H           -5.72558534156863        0.87999205560167        1.06235949292177
C           -5.65952587293696        1.51013852990720       -1.00657041746929
C           -6.53597127863729       -0.64308036762234       -0.16221384117500
H           -4.83280505400182        2.21265501910613       -0.88509379121372
H           -5.54150150613315        1.02086116088524       -1.97752637042891
C           -6.98327999735042        2.27774299462480       -0.98597244680722
O           -6.31678149140792       -1.65460540195684       -1.00794657325299
H           -7.80963227899964        1.56155868267478       -1.00104196094249
C           -7.11432214280428        3.14864603184584        0.26017176466482
C           -7.07858025148375        3.14685826792039       -2.23963264170699
H           -6.30566681415131        3.87560504033237        0.30089492869268
H           -8.05947948026659        3.68500218361489        0.24196743189840
H           -7.08647179405377        2.54924093921976        1.16565194272019
H           -7.02762972724250        2.53763085513400       -3.13926155532185
H           -8.01975117236084        3.69047162118378       -2.24978237493977
H           -6.26455199283084        3.86861460487214       -2.26597708245531
N           -7.66636437796354       -0.43209626886619        0.36662304121647
H           -8.82635508666351        0.72643757617185        1.12321923807210
C           -8.79737530015760       -1.29527208219295        0.10817807364219
H           -8.85745354739764       -1.58920940014521       -0.94775988524877
C           -8.75334325188083       -2.56120123506780        0.97097125373740
C          -10.06267233694761       -0.50391517071087        0.47112211930386
H           -8.64079430748446       -2.29118300989874        2.01922736762813
H           -9.67921625626184       -3.11479149657055        0.84232904070157
H           -7.91398401857762       -3.18446261884547        0.67255798243911
O           -9.80964502449068        0.64547976879200        1.08562904328988
O          -11.17144575919016       -0.89766731028912        0.23558208027804
