42
 energy: -62.486133513917 gnorm: 0.000479690436 xtb: 6.7.1 (edcfbbe)
N           -1.49245754585064       -1.07930785104981       -0.97065321900356
H           -0.84526908689285       -1.85690504352700       -1.01356021398723
H           -0.98161973004210       -0.27577269943985       -0.61467044780956
H           -2.80896477679435       -0.26499987623582       -2.07621430414638
C           -2.61763054175893       -1.38118474396861       -0.08513764585997
H           -2.97029841277540       -2.38965617569766       -0.33709458184616
C           -2.29677258637222       -1.31826687433906        1.40493356122540
C           -3.74506571672103       -0.42630146740388       -0.45405350396751
H           -1.91472342140588       -0.33312424673619        1.66480673787924
H           -3.20379707964923       -1.49327445361318        1.97302974723795
H           -1.55311993883986       -2.06825800187333        1.66660609196354
O           -3.66772353174369        0.04677916748569       -1.72116688957385
N           -4.65955796576081       -0.20459619261851        0.37519162725059
H           -5.98020581598575        0.22623104512316       -2.24428563425809
C           -5.78856751347914        0.67441675233592        0.13495613596225
H           -6.18103191450303        0.87461138817574        1.13838726411131
C           -5.49297156881213        2.00597883709352       -0.56332548435067
C           -6.81824278813814       -0.18076271190298       -0.57216121663556
H           -4.76910564168483        2.54670365787211        0.05135062385700
H           -5.02153359332426        1.83928125561761       -1.53444869335523
C           -6.74482148451527        2.87159381378261       -0.75901665710962
O           -6.74180722901066       -0.27102957497050       -1.91449907470814
H           -7.50864561603340        2.28024054865913       -1.27711275555783
C           -7.32577917894940        3.34404373154551        0.57140823903127
C           -6.39385808320483        4.07601602243363       -1.63223182335889
H           -6.57148884662397        3.87561045436493        1.14796510066582
H           -8.15972189591637        4.01936064234939        0.39488049308371
H           -7.69054071819825        2.50756290235487        1.16114359481439
H           -6.01329761228738        3.75863820449527       -2.60101384044619
H           -7.27269861291391        4.69411056710948       -1.79842454717372
H           -5.63361132414597        4.68515859771939       -1.14756102407470
N           -7.61287987911499       -0.86749491754819        0.12204309573674
H           -8.43654192981193       -1.18505081700984        1.70146505817269
C           -8.54600138053584       -1.79629075305756       -0.47537471688870
H           -9.05666122450640       -1.36158830835806       -1.34382203825095
C           -7.85486623917177       -3.09477189185575       -0.90677170200725
C           -9.59383703499105       -2.13747693250676        0.59513018747140
H           -7.29390989485175       -3.50899070231392       -0.07134169682750
H           -8.60667804802001       -3.81184156265564       -1.22435735363354
H           -7.17223437282553       -2.89679142863733       -1.72926530940632
O           -9.28375455860854       -1.68092761404653        1.80163298246934
O          -10.58389692419258       -2.77369854757131        0.36156904293185
