42
 energy: -62.486133510489 gnorm: 0.000480207572 xtb: 6.7.1 (edcfbbe)
N           -1.65793796460725       -0.80436138094934       -2.12049370742998
H           -0.90981964169402       -1.43121396322918       -2.38858280372616
H           -1.27900782895308        0.13838881744993       -2.10542173065152
H           -3.46669624796172       -0.40765264233297       -2.58582021010170
C           -2.19201695333758       -1.14854939197684       -0.80450661554830
H           -2.30378103121643       -2.23991399720129       -0.77071612413444
C           -1.33001482201850       -0.69326544583773        0.37158584187753
C           -3.59606150666440       -0.55945994328412       -0.72100971772760
H           -1.17826347495675        0.38352406945773        0.32757200613139
H           -1.83419259517586       -0.92828125910806        1.30285181721812
H           -0.36138735535819       -1.18848751443508        0.34907670472889
O           -4.14094458993195       -0.23001775824291       -1.89655737376082
N           -4.15121717077258       -0.45664170355972        0.40693782632092
H           -5.28050401788829       -2.28734752232176        0.65100194561043
C           -5.50246995916419        0.06955011912570        0.53713754970158
H           -5.66994527467383        0.12916861971867        1.62280505638692
C           -5.70137437866734        1.45861416504190       -0.07957619191300
C           -6.47660141526008       -0.95760992609451        0.00002796407015
H           -4.77961270533218        2.02720181481804        0.06575706967943
H           -5.86009095189987        1.33901679368187       -1.15105393624702
C           -6.87326748377496        2.23281422212867        0.53567428487527
O           -6.15232632284493       -2.24781307731182        0.22969406167783
H           -7.71361157160661        1.54406620955881        0.66003102724336
C           -6.50274844095800        2.80944469980624        1.90092113225169
C           -7.29794633230754        3.36136696181533       -0.40242403421561
H           -5.68892971584472        3.52518629133971        1.80130104648785
H           -7.35617315061194        3.32221995117397        2.33852726295584
H           -6.18842524182176        2.02951548302751        2.59006973862059
H           -7.61931157300170        2.97009667609772       -1.36441064251061
H           -8.12261186710162        3.92364506899547        0.02906409730154
H           -6.46847253662668        4.04597255050661       -0.56880041398945
N           -7.52505214985548       -0.59875785113034       -0.59307863985179
H           -8.36538801417557        0.67154423766955       -1.55962468136505
C           -8.47931075061054       -1.54663574220003       -1.11861855251368
H           -7.98882828759796       -2.41758387661730       -1.57183454657679
C           -9.44502959391070       -2.03185295992770       -0.03233938307650
C           -9.28924905996632       -0.81463245659548       -2.20037964397255
H           -9.90745003165783       -1.17950419562674        0.46155912841566
H          -10.21939782096442       -2.64236408692950       -0.48815166422551
H           -8.90663130595479       -2.62092081263850        0.70603440506695
O           -9.05698426481691        0.49122154202389       -2.24112747276316
O          -10.06710585343554       -1.37171648966690       -2.92416675429994
