42
 energy: -62.486133524268 gnorm: 0.000478498857 xtb: 6.7.1 (edcfbbe)
N           -1.70637886598046       -0.70241730761239       -2.17574392246571
H           -1.00076829282428       -1.34286921901981       -2.51788958842063
H           -1.25299899764121        0.19034097199685       -2.00319971406299
H           -3.47487675181804       -0.09878784650298       -2.60269635896417
C           -2.31427789644281       -1.19818216150000       -0.94321439570824
H           -2.55741567321531       -2.25653859623622       -1.10316082084608
C           -1.43430461042191       -1.06475147942187        0.29763866869597
C           -3.64380642282837       -0.46956921953066       -0.77213969805495
H           -1.16568965053479       -0.02206306623444        0.45385312219528
H           -1.97991334525478       -1.41005879592950        1.16894937687522
H           -0.52520825307318       -1.65210943793178        0.18434272969817
O           -4.13723624251707        0.05802594181993       -1.89794020617081
N           -4.17734568587701       -0.45077496975487        0.36777238355761
H           -5.58531753033279       -2.07024204748028        1.42639400356231
C           -5.46712174843592        0.16509067846288        0.64465714519793
H           -5.49243522770447        0.27122652482933        1.73937700579171
C           -5.71081935505031        1.52959846454531       -0.00273424400862
C           -6.49893331868935       -0.87051522485023        0.25773838091901
H           -4.81686877706138        2.13982580352384        0.14609146172937
H           -5.84656795993571        1.38365075418942       -1.07309912465289
C           -6.92988830036185        2.25913212395904        0.57370831478950
O           -6.38946812625694       -2.05990136955953        0.88983534374036
H           -7.74772908263539        1.53909217780177        0.67336700122498
C           -6.62968703396488        2.85829673951841        1.94646453265409
C           -7.37028319461748        3.36240541395120       -0.38691839491117
H           -5.82167089759382        3.58358878175958        1.87395955813372
H           -7.50868289866965        3.36547888029100        2.33757980053265
H           -6.33882681172998        2.09231719717475        2.66103019472238
H           -7.65414733761643        2.94650981273931       -1.35050112569720
H           -8.22420458472333        3.90085314131375        0.01757130731261
H           -6.56109054549843        4.07288044461547       -0.54306375653590
N           -7.34056084198283       -0.63706886911859       -0.64520664869704
H           -7.87664362108256        0.40429863985996       -2.00671135081190
C           -8.29705416847634       -1.62009551336492       -1.09414437428317
H           -7.83729707215779       -2.60691314036799       -1.23322684646877
C           -9.47100542917763       -1.75478053930541       -0.11818563503861
C           -8.84097446150888       -1.12645733420571       -2.44467101083525
H           -9.91354138666720       -0.77792418884413        0.06725808735968
H          -10.22282025856280       -2.40954636354377       -0.54966277327301
H           -9.12345522182340       -2.17244941908076        0.82349917613171
O           -8.47447188356401        0.11423975287949       -2.73780812495806
O           -9.54440348972209       -1.79486189239389       -3.15023431093635
