42
 energy: -62.486133510657 gnorm: 0.000480348466 xtb: 6.7.1 (edcfbbe)
N           -1.72203196001912       -1.57257619030100        1.16130653742569
H           -1.35118908589231       -0.82720025718135        1.74155445429591
H           -0.97555922992150       -2.23633523936305        0.99140196163617
H           -3.60525511508304       -1.57782189442619        1.68637007062588
C           -2.23992253828762       -1.03952727570213       -0.09657181899554
H           -1.60426725613995       -0.26677262993802       -0.55114372517885
C           -2.43537725709727       -2.18079501334803       -1.09636785856711
C           -3.59740557749012       -0.43111425098866        0.20591639660519
H           -3.09857333983826       -2.93537257427068       -0.67885133179618
H           -2.86933621778263       -1.79674796389245       -2.01461072645652
H           -1.47982480688763       -2.64591175231599       -1.32948733166133
O           -4.23034697932176       -0.95464554638759        1.26249473737794
N           -4.04964398144550        0.48324949043714       -0.53388872210840
H           -5.43060745620336       -0.32787607835935       -2.24876047328306
C           -5.38791425243062        1.00101202993623       -0.29133987842909
H           -5.51654402885362        1.26473188983611        0.76383537658731
C           -5.60138093967158        2.22687108268988       -1.18839722918115
C           -6.37599055530602       -0.09233402089090       -0.61668685459101
H           -4.91208326314755        3.00669019825623       -0.86089060695046
H           -5.32300645079475        1.95964133938607       -2.21128040358836
C           -7.03655604157661        2.76336123516090       -1.17726030029564
O           -6.20325352168437       -0.70613121056112       -1.80588528837261
H           -7.71486743133985        1.95767082517823       -1.47995378102249
C           -7.44918582453680        3.24102191042236        0.21243360842766
C           -7.16184223488154        3.90461426685302       -2.18524792033291
H           -6.74741518125155        3.98628602910224        0.58119467682301
H           -8.43850613799422        3.69048396023683        0.17479593832306
H           -7.48281769976321        2.41184950510029        0.91317060961043
H           -6.89302184993381        3.57133922729146       -3.18525976024369
H           -8.18332408749527        4.27573102437908       -2.21266472317829
H           -6.50531329699816        4.72699516528813       -1.90908273506739
N           -7.27772969209662       -0.39805548292585        0.20488814528652
H           -8.25105770409504       -0.02698606310407        1.68678191530164
C           -8.22568233951416       -1.45606881374203       -0.06544120554386
H           -8.61519721740974       -1.40531640127102       -1.09010204582515
C           -7.60238382421559       -2.83799963805011        0.16040320196501
C           -9.39125958309022       -1.28271542146158        0.91898241052001
H           -7.15731910008462       -2.88316013670387        1.15237545326931
H           -8.37371949801750       -3.59849047990601        0.07736279355403
H           -6.83085509700468       -3.02099256892367       -0.58333650632164
O           -9.14444212600703       -0.39830978720361        1.87735340989468
O          -10.41418147098225       -1.90431829012618        0.83882462361508
