42
 energy: -62.486143125488 gnorm: 0.000732943807 xtb: 6.7.1 (edcfbbe)
N           -0.76936013793499       -0.01973385935303       -0.68162850479252
H           -0.00260167880590       -0.34256817793154       -1.25886001837222
H           -0.50990392885515       -0.17500208642794        0.28860613140851
H           -1.92204653660869        1.50835371363005       -0.53424555167990
C           -2.00115923506916       -0.74323596153743       -0.99078269120560
H           -2.10054912273329       -0.76438518383147       -2.08381445207324
C           -2.05354041686657       -2.17337816727221       -0.45710934944090
C           -3.16070974748742        0.10210456216165       -0.47278401684797
H           -1.97927915255117       -2.17338856751210        0.62880139803588
H           -2.99307650287002       -2.63439435827012       -0.74243688056977
H           -1.23267348597504       -2.75893123906068       -0.86640697628580
O           -2.87508521471347        1.40535532949176       -0.33241100073748
N           -4.25758107984353       -0.46069907055691       -0.23391377031791
H           -5.21468384935697       -2.05801789918368        0.71637617894971
C           -5.47012669217783        0.19728222201138        0.21636995468994
H           -5.36546116922155        0.41030899276911        1.29071258625633
C           -5.84025300669820        1.48555467404340       -0.52530073718608
C           -6.52471844637483       -0.88330220645385        0.05796131816642
H           -4.96167228387323        2.12834715891424       -0.57127647115173
H           -6.11681383846184        1.21168605529871       -1.54470366727930
C           -6.98657524641976        2.26280341621177        0.13353376732721
O           -6.17251869587019       -2.08248260895317        0.55795321568879
H           -7.77426878232082        1.55727081152758        0.41200213995792
C           -6.51280836816346        2.99150912454414        1.38974553592447
C           -7.56111953665827        3.27040881808281       -0.86072370293920
H           -5.72631466277923        3.70150999742305        1.14190657205140
H           -7.33719636562763        3.53757671321748        1.84261065438880
H           -6.12495363566803        2.29665681392332        2.13075515403818
H           -7.95022826522334        2.76885608320588       -1.74338282627492
H           -8.37147024080413        3.83444526461882       -0.40499766381225
H           -6.79071442656162        3.97190153017100       -1.17450225849702
N           -7.58845681022507       -0.67116991752328       -0.57845288353003
H           -8.55266716616936        0.37157304475841       -1.69151282681203
C           -8.57118672637881       -1.70664951444944       -0.79704673943599
H           -8.10563146847362       -2.65662336882668       -1.08960145254867
C           -9.43245934386714       -1.94273982225693        0.44837312120439
C           -9.48341652890855       -1.22413341345852       -1.93508347665599
H           -9.87453980768451       -1.00458522693603        0.77849884861020
H          -10.22601366790419       -2.64476776116807        0.20868300965731
H           -8.81906981072820       -2.34794186639938        1.24927910638260
O           -9.29312034414584        0.04906671453833       -2.25928931490913
O          -10.30016583553685       -1.92646661489807       -2.46296639884995
