42
 energy: -62.486143125515 gnorm: 0.000732968293 xtb: 6.7.1 (edcfbbe)
N           -1.83517594865396       -0.89966635180007       -2.21474781265637
H           -1.17881041486020       -1.59521865065425       -2.54599234929458
H           -1.34354268396055       -0.01215234568004       -2.16048367604360
H           -3.59415910438976       -0.28574370204311       -2.59213193696059
C           -2.36849737353885       -1.25611682521848       -0.90186982420718
H           -2.61109615192115       -2.32595883351018       -0.92362736274655
C           -1.42143953145810       -0.97733422959629        0.26362884430553
C           -3.69266999763198       -0.51443593026771       -0.73500815832529
H           -1.14764563562175        0.07587456070732        0.27822316280996
H           -1.91843742130319       -1.21367808354184        1.19815645856088
H           -0.51787814552474       -1.57696705406433        0.17285220188658
O           -4.22628857726139       -0.06441366008138       -1.87550077458645
N           -4.18723491678556       -0.42375006209004        0.41914454445678
H           -5.70495859421781       -1.91228251345157        1.72166389060512
C           -5.46186737379776        0.22346786989772        0.69777080436019
H           -5.45843443279605        0.38198341878414        1.78631467928014
C           -5.69855533846486        1.56008484855694       -0.00692732674710
C           -6.51214606890831       -0.81641381712761        0.38033474360865
H           -4.80727538885418        2.17691584806407        0.13108382016512
H           -5.81946457153895        1.37185997961239       -1.07218715327109
C           -6.92801831037756        2.30920468651711        0.51957443618721
O           -6.47696484740404       -1.93288786334322        1.14109669163066
H           -7.75125045246088        1.59481810324190        0.61591210581915
C           -6.66242073154371        2.94459956921041        1.88298408623641
C           -7.33819287492762        3.38705656321356       -0.48231469143190
H           -5.84739258830366        3.66241685063166        1.81347751236324
H           -7.54876275292741        3.46821207762264        2.23402666942887
H           -6.39825772144258        2.19726433092076        2.62708454152437
H           -7.59419352174234        2.94456898250225       -1.44174412733146
H           -8.20262673156743        3.93710938950293       -0.11764199564815
H           -6.52352397807184        4.09218699508305       -0.63416303315025
N           -7.29600222594989       -0.66140997252018       -0.58935014198826
H           -7.62481424871529        0.17239462954255       -2.14748628883006
C           -8.25407501029547       -1.66450408912985       -0.98619395525273
H           -7.83786949573307       -2.67878908681254       -0.93095519475320
C           -9.52065999344303       -1.60142565884349       -0.12600897242454
C           -8.63838017941687       -1.36135675831397       -2.44353312738770
H           -9.92332269550927       -0.59039649411277       -0.13204257505690
H          -10.26352722678693       -2.28260872729951       -0.53128019442983
H           -9.28813753623178       -1.88548583782240        0.89743822059897
O           -8.16790570285555       -0.20172527386409       -2.88293854426214
O           -9.31431474536975       -2.09732261503734       -3.10770294664387
