42
 energy: -62.486133515383 gnorm: 0.000480000345 xtb: 6.7.1 (edcfbbe)
N           -0.75426332577413       -0.41538997717919       -0.07481444653199
H            0.03830395369519       -0.60547455434276       -0.68447921747274
H           -0.58766227347111       -0.91700110468720        0.79712572572925
H           -2.16101767804466        0.44255122459990        1.33374953686511
C           -1.99737076859950       -0.87390511808335       -0.69636421104512
H           -1.92920418163176       -0.74200911435510       -1.78665657741335
C           -2.34394037381888       -2.35378488942057       -0.37379418088522
C           -3.16806630186534       -0.04085882976800       -0.19029351245071
H           -2.45384805745179       -2.48083791840671        0.71565842955866
H           -3.28537514947164       -2.64568571929761       -0.84584524380296
H           -1.55096037060085       -3.02124373835677       -0.74274337354869
O           -3.08442599244097        0.45314950853319        1.05955834109748
N           -4.18425155580539        0.04071094224452       -0.92749900405682
H           -5.17678664425892       -1.08833275179494       -1.96573288271133
C           -5.43669225146537        0.59642128259944       -0.44087066725863
H           -5.39238574216435        0.69922145618250        0.64981714769028
C           -5.77544259524253        1.96962287886964       -1.02225074929124
C           -6.46848668059865       -0.46867091261469       -0.77255419358796
H           -4.93978876482019        2.63499848693627       -0.78771938723533
H           -5.85579970113280        1.89990648415035       -2.10902234926375
C           -7.07142126587032        2.56240502684954       -0.44790307309729
O           -6.09587963732015       -1.33897714092628       -1.72339864310901
H           -7.91395218337771        1.97294406299458       -0.82194216388273
C           -7.11279831837090        2.53984353568347        1.08012746968788
C           -7.22962040654633        4.00261819403103       -0.93288662899906
H           -6.24964861267368        3.05875563691544        1.49668451000052
H           -8.01413262051955        3.04076304593260        1.42888159965979
H           -7.12807494314674        1.52210770027854        1.46067911474783
H           -7.20081632074256        4.05519677443447       -2.01860333651690
H           -8.17971161475625        4.41005032676625       -0.59450153345112
H           -6.43009310467677        4.62568171660976       -0.53501436705403
N           -7.61261791622132       -0.46832513579817       -0.23996612422052
H           -8.94832427228924        0.32610928827778        0.71302583910522
C           -8.60330432937847       -1.43270560827578       -0.68403075129171
H           -8.65060091917064       -1.45892667419539       -1.78187040512128
C           -8.32160364342476       -2.85014929225631       -0.17992160796256
C           -9.96900041442252       -0.96895229750395       -0.15958486970042
H           -8.19592560908518       -2.84300844355236        0.90031499679803
H           -9.15770957390884       -3.49326120870125       -0.43903035683326
H           -7.41552525502223       -3.23349465831603       -0.64256707928831
O           -9.89916250655488        0.07290954026970        0.66041391921350
O          -10.99876994004998       -1.50696327467254       -0.46410734494137
