42
 energy: -62.486132246182 gnorm: 0.000632941451 xtb: 6.7.1 (edcfbbe)
N           -0.82808543923900       -0.06618833702230       -0.95214140894788
H           -0.08517443712893       -0.49947285789361       -1.48691469421135
H           -0.52137580121949       -0.01639673763986        0.01524936683717
H           -2.02260528941468        1.44716536878496       -1.10226808840620
C           -2.06271714311075       -0.84253655256187       -1.04410194616026
H           -2.23202317587738       -1.05194785135858       -2.10870061726873
C           -2.04998314973406       -2.16006533396785       -0.27273714234243
C           -3.20068217269620        0.07547603129635       -0.60528899713692
H           -1.93841612042718       -1.97236096560698        0.79287938915477
H           -2.98185993157600       -2.68994766187638       -0.43731269307834
H           -1.22500398891127       -2.78449028901282       -0.61031697524486
O           -2.95015673871854        1.37990423799075       -0.79654257686800
N           -4.23591414745444       -0.44459243596917       -0.12369082105450
H           -5.23093172822408       -2.03769517794354        0.78830284236087
C           -5.45803567776031        0.21628134454009        0.28946250363814
H           -5.38086345196113        0.37641015337057        1.37550107653285
C           -5.81862559398059        1.53490199875739       -0.39912532471622
C           -6.50442078789203       -0.86247211261981        0.06342052231427
H           -4.95019488699300        2.19220312879702       -0.38299450645229
H           -6.05505830870464        1.31183222193598       -1.44074219841133
C           -6.99925323208107        2.26146133326353        0.25788946558836
O           -6.17601834988291       -2.06690918067368        0.56576870143390
H           -7.78238373957291        1.53151360044255        0.48102893488108
C           -6.57621623788340        2.94123181828909        1.55908696844337
C           -7.56241524157690        3.30311931181830       -0.70733502941229
H           -5.80057036536357        3.67971419504216        1.36576422369506
H           -7.42467504599337        3.44787455861720        2.01337112181400
H           -6.19248827356934        2.22151740301512        2.27832879649209
H           -7.91878795949588        2.83503787033398       -1.62155826670580
H           -8.39402204395163        3.83463869910607       -0.25062766508810
H           -6.79491282206417        4.02889904108490       -0.96867046945936
N           -7.53595991290406       -0.64164927938624       -0.62094583756640
H           -8.47057729870282        0.42750580132571       -1.73389181495067
C           -8.50587335723043       -1.67564959265952       -0.89949358883156
H           -8.02383232585174       -2.61102160908567       -1.21195572467734
C           -9.39802341977791       -1.96362257346579        0.31277427819981
C           -9.39073152144448       -1.16245114891940       -2.04570414657972
H           -9.85847076222775       -1.04205755055770        0.66379820150918
H          -10.17774632784508       -2.66358889020603        0.02606648437108
H           -8.80285075281990       -2.39209784190871        1.11518594220414
O           -9.19540011791198        0.11954670646817       -2.32918760669207
O          -10.19285418233731       -1.85104671615046       -2.61269566287181
