42
 energy: -62.486133506167 gnorm: 0.000480810214 xtb: 6.7.1 (edcfbbe)
N           -0.75546795860146       -0.07841780749024       -0.86451928454421
H            0.01139366735307       -0.55550152378151       -1.32274272690796
H           -0.49443671446000        0.06052395182557        0.10753611115726
H           -1.92816730804121        1.40780183572540       -1.20128797599116
C           -1.98506717671864       -0.86495358225762       -0.94192696203905
H           -2.10248979300367       -1.17327858833663       -1.98978810890343
C           -2.00164273606559       -2.10510150079301       -0.04905158041515
C           -3.14008107578156        0.09056214531276       -0.64362263061648
H           -2.01335119426279       -1.81538845195407        0.99978713989854
H           -2.88186563695247       -2.70709173407318       -0.25287242984044
H           -1.11714535378457       -2.71055333112709       -0.23895006918254
O           -2.86962744784659        1.37018513699630       -0.93414463170930
N           -4.19726698227095       -0.38344338079455       -0.16144451901065
H           -5.05752940119637       -1.96459644069684        0.04348729844271
C           -5.45747666590962        0.27513974220980        0.11739650999806
H           -5.47802162895148        0.45994232874357        1.20152878929521
C           -5.66648831007599        1.60067963722293       -0.62511353805051
C           -6.50195287168681       -0.80670474389196       -0.14985377613112
H           -4.84774947834686        2.25803973774389       -0.32783534076038
H           -5.56294772893204        1.40780436596266       -1.69522657653084
C           -6.98332974441752        2.34748792024937       -0.38553880428608
O           -6.03053439399095       -2.05786799306836       -0.04826634919423
H           -7.77172557925478        1.84985658984573       -0.95235505717837
C           -7.38084758299013        2.38218213881695        1.08684600162122
C           -6.84412284349672        3.77119483902218       -0.92508491578556
H           -6.57671907989112        2.79777054271159        1.69133089547115
H           -8.26181478351903        3.00606990481932        1.21947003193727
H           -7.61490216186033        1.38394985050793        1.44678349024229
H           -6.54169173478733        3.75732301564365       -1.96943924847401
H           -7.79192635737922        4.29866277508960       -0.85059771593351
H           -6.09747007621553        4.32463528520842       -0.35895215059987
N           -7.69922576750327       -0.53677426922365       -0.43902380214294
H           -9.18054541695452        0.59218089489329       -0.64683735397461
C           -8.64426426825425       -1.61237085207459       -0.66862755282123
H           -8.23726506026861       -2.36969979858990       -1.34965384512345
C           -9.05938443781883       -2.29775665911235        0.64052320355037
C           -9.90784195430992       -1.00331782448840       -1.28421295440119
H           -9.44955320484130       -1.56018897990068        1.33995441880156
H           -9.83103828798728       -3.03386439293002        0.43289661766817
H           -8.20025046408573       -2.79188116751525        1.08660735654167
O          -10.01300718405113        0.30603818146971       -1.08445116431903
O          -10.74134908191740       -1.65130367239811       -1.85379180167056
