42
 energy: -62.486133522325 gnorm: 0.000478875445 xtb: 6.7.1 (edcfbbe)
N           -0.75704115727411        0.01909038824933       -0.26009212888956
H            0.09639831073404       -0.23137238486263       -0.74434537167807
H           -0.65985162633878       -0.28066530633654        0.70637380378939
H           -1.95690064969077        1.54281990504242       -0.09079433783276
C           -1.91596336842504       -0.63093907522832       -0.86905424183467
H           -1.84953157231951       -0.46056474825848       -1.95188711671992
C           -2.02349038592025       -2.13157116340858       -0.60592653658655
C           -3.14850707108726        0.12440607561587       -0.39091296859877
H           -2.12186984863010       -2.32179275414308        0.46120993590085
H           -2.89504376097279       -2.53142051657024       -1.11357343732714
H           -1.13558837838333       -2.64159861724227       -0.97398424731193
O           -2.92375416226946        1.40026384037624       -0.04772521481439
N           -4.25825411104293       -0.46507422226120       -0.35424207288330
H           -5.10455576659208       -2.09538092828720        0.22447819904913
C           -5.49876663790025        0.17065376543710        0.04753825864176
H           -5.42129263154604        0.46721470807881        1.10408994177047
C           -5.87810042840885        1.39904088318635       -0.78990076080025
C           -6.53870199368013       -0.93202473107284       -0.05043390431204
H           -4.97841651403153        1.98586980285481       -0.97661870458997
H           -6.25989312554673        1.04534913889973       -1.74875517466807
C           -6.92049507937836        2.29686363479235       -0.11172829644366
O           -6.07874011264727       -2.16140398723833        0.23028533535719
H           -7.68199009025701        1.65968424454554        0.34665123286586
C           -6.27910768356356        3.15755880293099        0.97500738606013
C           -7.58929371601979        3.19287672731337       -1.15250186414401
H           -5.53373090141953        3.82090640123421        0.54116978608137
H           -7.03266026665242        3.76504688118059        1.47071180145875
H           -5.78987410479589        2.54562772973497        1.72882696716589
H           -8.09446437708232        2.60083901529497       -1.91150882811528
H           -8.32503039707884        3.83926109732017       -0.68026141108589
H           -6.84754288025185        3.82071695910712       -1.64223856550985
N           -7.71571161845898       -0.68393682767304       -0.42282605936210
H           -8.87790008308013        0.40791540724872       -1.27982757621227
C           -8.70218691400607       -1.73198294261415       -0.55415880709503
H           -8.27842251945534       -2.63621990992414       -1.01042183257908
C           -9.31463674485616       -2.10582100498143        0.79972317253171
C           -9.81588777599622       -1.19306330476582       -1.46365135766627
H           -9.70194951983405       -1.21561770258358        1.29149224403564
H          -10.12785963437108       -2.80896031982169        0.64384842627832
H           -8.55775228330473       -2.56116094794106        1.43353458636317
O           -9.70285714349906        0.10325837690721       -1.72751155395467
O          -10.70897253816035       -1.87671828600724       -1.88112373342049
