42
 energy: -62.486133511352 gnorm: 0.000480028686 xtb: 6.7.1 (edcfbbe)
N           -1.16170700480638       -1.32500566388172        0.80724865636518
H           -0.15825377403205       -1.34337516679874        0.67542151504779
H           -1.48094685424186       -2.28803821601808        0.86629892179780
H           -2.47724713808306       -0.47905774583975        1.91407625188545
C           -1.82871350728026       -0.64227418502364       -0.29896965312330
H           -1.25962353687880        0.27005435065482       -0.51574000805622
C           -1.95304965597640       -1.46918540204354       -1.57852785990973
C           -3.19280042353061       -0.18940858710515        0.20638755265679
H           -2.46870256508069       -2.40689844894726       -1.37474347419867
H           -2.51931097138037       -0.90964833364241       -2.31598039554780
H           -0.96809075819359       -1.69455791143138       -1.98189107829485
O           -3.32260681648693       -0.15607268382946        1.53915616904060
N           -4.07658741325372        0.15846619567195       -0.62375919678343
H           -4.89029981714793       -1.57010842136925       -1.02239912770427
C           -5.39082326785625        0.58332606045640       -0.18041258348301
H           -5.38870882446921        0.87817993369120        0.87686573833231
C           -5.75246853690536        1.78956031454944       -1.06663067400262
C           -6.34687098647584       -0.58589498065516       -0.33475877939608
H           -4.98340993960431        2.54494841754145       -0.88670531209958
H           -5.65735671250014        1.46825330822016       -2.10585910370243
C           -7.12999973424894        2.42062042572443       -0.85947614496575
O           -5.81101883112280       -1.74652405130705       -0.75784648501329
H           -7.89056370836037        1.69541785660855       -1.15649674043334
C           -7.36586090904345        2.81994318678282        0.59442038417957
C           -7.25966842943967        3.64414849845746       -1.76620308858515
H           -6.59616177762246        3.51372931399857        0.92733078362806
H           -8.33242728985112        3.30750630290066        0.69612294091216
H           -7.35279046562719        1.94850649351400        1.24313405377626
H           -7.09657741323217        3.37270993071915       -2.80648602750042
H           -8.25388935005087        4.07452590590352       -1.67721381718976
H           -6.53078158367421        4.40398970475032       -1.49115865236205
N           -7.58357325804763       -0.42752661026793       -0.14933344713189
H           -9.06650679439102        0.60323618476572        0.27676675877382
C           -8.51011762856125       -1.52330536028469       -0.33274418444059
H           -8.32805969073969       -2.05427821525351       -1.27575883039839
C           -8.44087987405882       -2.53132317090491        0.82111625648377
C           -9.92563022194538       -0.93239761692597       -0.35523982601310
H           -8.58567458951573       -2.01979468650128        1.77086794282506
H           -9.22133954298451       -3.27645252459170        0.69494474463017
H           -7.47053702209134       -3.02108067536831        0.82604788850864
O           -9.98895891267755        0.31678273829653        0.09006654705253
O          -10.88759572796905       -1.55372230531453       -0.71300355743470
