42
 energy: -62.486133511133 gnorm: 0.000480144270 xtb: 6.7.1 (edcfbbe)
N           -1.38040586373445       -1.64086870214522        0.89039843885853
H           -1.13019386675826       -1.11945635482420        1.72385307974502
H           -0.55037155009747       -2.11729509926327        0.55906832150043
H           -3.22548810308498       -2.05788620476976        1.25129346207624
C           -1.91806787968720       -0.75223648693389       -0.13716416796391
H           -1.41344533257684        0.22197064758985       -0.19305889442454
C           -1.83960793085501       -1.43029316785744       -1.50668218389182
C           -3.38190007017560       -0.51091215570134        0.19882654349749
H           -2.34791184573444       -2.39266080104625       -1.48101158192730
H           -2.30346868724071       -0.79549215187480       -2.25646847078668
H           -0.80134471780496       -1.59470038694458       -1.78718517853301
O           -3.94121525775912       -1.44083348841179        0.99264109194287
N           -3.96003841495811        0.50506162937900       -0.27041805304233
H           -4.87969751002763       -1.23109491799853       -1.38447145196838
C           -5.36928699629540        0.75705027490749       -0.06128629326500
H           -5.53238282962034        1.06126155560350        0.97834263992707
C           -5.72923085058937        1.92267911130746       -1.00594574080940
C           -6.26416874660087       -0.43392979006917       -0.33703285647879
H           -4.98541498652027        2.70127237854869       -0.82933771244089
H           -5.59746242376558        1.57242968291129       -2.03270457387240
C           -7.13316461707469        2.51022362335313       -0.85380936979400
O           -5.79089004396329       -1.42116873591570       -1.12119693708724
H           -7.86564407283533        1.71904338348398       -1.03529381481166
C           -7.36721665341088        3.08246528671303        0.54155023623886
C           -7.33832321965494        3.60111929599724       -1.90438394832589
H           -6.63388211660180        3.85549637276957        0.76259697977998
H           -8.35938823532834        3.52261601230034        0.60202625711394
H           -7.29586810734848        2.30836916433523        1.30049743258957
H           -7.19992991154919        3.20374185643465       -2.90718423226070
H           -8.34436036457238        4.00680560751555       -1.83436578178846
H           -6.62911619607469        4.41278563398397       -1.75548269970961
N           -7.47146270748996       -0.37114718062290        0.02164262860938
H           -8.88660246364083        0.55671119088710        0.71767984244345
C           -8.41437868801768       -1.41380210749869       -0.31376993310141
H           -8.32414109547468       -1.72470079913634       -1.36272341536431
C           -8.23857302015027       -2.64439072200158        0.58320932416551
C           -9.82193950325004       -0.84694885425409       -0.08215652389332
H           -8.29127389009778       -2.35014615082109        1.62954073239777
H           -9.02849710260347       -3.35979004527676        0.37260524264426
H           -7.27149086109027       -3.10302089780682        0.39361003669294
O           -9.82896447944953        0.30607488343166        0.57608008968288
O          -10.81998004225500       -1.40642825996360       -0.44339334136325
