42
 energy: -62.486133523193 gnorm: 0.000478839906 xtb: 6.7.1 (edcfbbe)
N           -0.92635673157756       -0.11702765758667       -1.33540701833446
H           -0.20440740802114       -0.67159561642585       -1.77819704957318
H           -0.50258586856939        0.37076399328749       -0.55099452795142
H           -2.27620977327136        1.11379599969581       -1.80861896658267
C           -2.02610357294783       -0.95682088673090       -0.86546619094464
H           -2.25838751343659       -1.67011803172707       -1.66666796178131
C           -1.72223970380912       -1.72360348874795        0.42052175919121
C           -3.25336378120103       -0.05379394913559       -0.72008188645060
H           -1.51604043678656       -1.02782362690197        1.23133904733393
H           -2.57232465565950       -2.33522371349585        0.70259769197007
H           -0.85631479340964       -2.36742820564429        0.27816605988307
O           -3.16502041641775        1.09903416676831       -1.39339235173157
N           -4.20795610004720       -0.46474013852716       -0.01468852256369
H           -5.10961713541061       -2.12644751802993        0.24352062918701
C           -5.49948591525990        0.15048686116477        0.20722608509778
H           -5.56004196330687        0.28344428826390        1.29880366247056
C           -5.82393113604552        1.48256409656886       -0.47444560237671
C           -6.50340447749218       -0.94173816601432       -0.13745507799510
H           -4.93552685831533        2.11280805243586       -0.46334316060659
H           -6.08041530790934        1.28334134975735       -1.51576739566571
C           -6.96873681926879        2.24191729357967        0.21029194699639
O           -6.06416299218493       -2.19636831271149        0.04714948077313
H           -7.74863248981965        1.52677698464097        0.48483185744980
C           -6.48169873456852        2.94449680178505        1.47666943772249
C           -7.55867555355707        3.26917281610363       -0.75393002425673
H           -5.71545109662467        3.67781689652791        1.23252493361802
H           -7.30579372341344        3.46134334651820        1.96291893461930
H           -6.06299113893208        2.23660245532160        2.18833549390121
H           -7.95988253579989        2.78650487306841       -1.64156107786646
H           -8.36283902695446        3.82281302255018       -0.27503648201890
H           -6.79309968116385        3.97753051270151       -1.06421209447526
N           -7.65472304906825       -0.64729344381560       -0.55253853620490
H           -8.72331363528128        0.53653605380427       -1.42742104351940
C           -8.62375004104345       -1.66495959855117       -0.88905993522619
H           -8.15842716236208       -2.54624129201079       -1.34879381825003
C           -9.41172328578494       -2.10900318842528        0.34821027282145
C           -9.60627421439596       -1.04050601481339       -1.89048182199955
H           -9.84333654072004       -1.24221566754491        0.84468813167304
H          -10.21010161842428       -2.78020988881282        0.04463873794453
H           -8.75082302631190       -2.62235214477086        1.04221823291544
O           -9.47895103233508        0.27611612641057       -2.00548279788370
O          -10.42307031972767       -1.68038126007828       -2.49267405671648
