42
 energy: -62.486133513311 gnorm: 0.000479795449 xtb: 6.7.1 (edcfbbe)
N           -0.93237503254794       -0.43957125096843        0.41919593116883
H           -0.04327509414766       -0.78082294132552        0.07447616027096
H           -1.07333187702953       -0.83564369304179        1.34471558809387
H           -1.93093932876029        1.20504143558365        0.59708448236943
C           -2.02631934597306       -0.84545143599093       -0.46215473337896
H           -1.72136287433665       -0.59983184843224       -1.48854799555449
C           -2.39367455258459       -2.32539801548372       -0.38463057796305
C           -3.21539116068377        0.04740060272429       -0.13338229011609
H           -2.68956887886370       -2.58350826326499        0.62982928390475
H           -3.23071087221806       -2.53028564309968       -1.04307069765928
H           -1.54610803303196       -2.94252683098868       -0.67643681526329
O           -2.89554633172175        1.22226723423130        0.43214627114779
N           -4.37933347685716       -0.35349835253838       -0.38818379811571
H           -5.73591099418064       -0.63593039598179       -2.22980169285141
C           -5.55619593637390        0.45927522820673       -0.15234847836236
H           -5.67546645035567        0.64689837808806        0.91955575708426
C           -5.52498935709956        1.80017894775822       -0.90954183565025
C           -6.71675306679509       -0.37788403443251       -0.63802096564374
H           -4.75673996347685        2.42976553135751       -0.45941561189024
H           -5.23089681730791        1.60898642493171       -1.94681366797273
C           -6.86609992107000        2.54215804544543       -0.90022670673268
O           -6.62623720098966       -0.82551361983727       -1.90257106005300
H           -7.63137793972162        1.89489707192377       -1.34344921242070
C           -7.30209030532462        2.90252220650957        0.51710716700006
C           -6.75047290317520        3.80480235652160       -1.75292571114394
H           -6.52596874689678        3.47770318318156        1.01773930730812
H           -8.20906792482452        3.50152427552945        0.48771391577537
H           -7.50849301382847        2.00842114243841        1.09851118710299
H           -6.46072833384061        3.56033907164558       -2.77272748420377
H           -7.70286739321525        4.32809014803499       -1.78559656840695
H           -6.00380913655548        4.47661192031546       -1.33465307410691
N           -7.65428685490248       -0.67345980060877        0.14895744617020
H           -8.59406963574831       -0.32613871109715        1.65423352974103
C           -8.77155846004610       -1.49122769496559       -0.27263524296996
H           -9.11562133207394       -1.22779643855555       -1.28045446384617
C           -8.41745978613107       -2.98204684244790       -0.24424324000172
C           -9.91592757618059       -1.24576597161044        0.72163028778907
H           -8.03736450157954       -3.25388664287307        0.73838786947269
H           -9.30817437964868       -3.56641274745791       -0.45718876962905
H           -7.65579227634823       -3.19495536118102       -0.98992527769192
O           -9.54406175229695       -0.55299909376164        1.79179006704715
O          -11.02977243887210       -1.65835341406295        0.55480673799788
