42
 energy: -62.486133511599 gnorm: 0.000479662165 xtb: 6.7.1 (edcfbbe)
N           -1.13310400714106       -0.52136821910497       -1.51008610006960
H           -0.31303673000330       -1.09770236315856       -1.65470322157472
H           -0.81400770292430        0.38483577163548       -1.17877929986324
H           -2.73246080538666       -0.04008200423073       -2.42784692499314
C           -2.02839830150733       -1.12025167273047       -0.52084289516246
H           -2.13782851684909       -2.18119256117287       -0.77984407465391
C           -1.55863335184259       -1.00319857895556        0.92567485908489
C           -3.39645860039855       -0.47858803150314       -0.71558221562182
H           -1.41710373501727        0.04203549068970        1.19115578457321
H           -2.31371809938945       -1.42183600862884        1.58167267433095
H           -0.62047993270861       -1.53605407582959        1.06595187000078
O           -3.59630492798231        0.00880653467100       -1.96785274427718
N           -4.22936134315842       -0.50857813259437        0.21923432702604
H           -5.25544212623559       -1.23085740173775       -1.81405631322825
C           -5.54115009710962        0.09440131261225        0.22599407053529
H           -5.83339835351951        0.12437037732716        1.27982750552037
C           -5.55022547285332        1.52846608424969       -0.34780014969160
C           -6.56361515127619       -0.74939943050081       -0.50516661112160
H           -4.71881069932638        2.06572283463283        0.11616063332711
H           -5.35689539724094        1.47805397195362       -1.42150542929374
C           -6.84741955230604        2.30737211009658       -0.11557102948677
O           -6.15888881276744       -1.47122421704180       -1.56488810159400
H           -7.68240245893684        1.72064527652476       -0.50876296149505
C           -7.09808862045041        2.58031390471911        1.36501798129339
C           -6.78492641316288        3.62725643044563       -0.88396013314562
H           -6.27013144439695        3.14124734945914        1.79401986078855
H           -8.00694939286205        3.16414819854085        1.48630849324693
H           -7.21646154664838        1.65574078108786        1.92259589210046
H           -6.64249619183328        3.45030036993071       -1.94775660946125
H           -7.70938169426091        4.18390101455429       -0.75224918760891
H           -5.96086778693619        4.24035219660970       -0.52379463675134
N           -7.77269734727678       -0.64976693520765       -0.16064361399390
H           -9.08177858591707        0.20024215719883        0.78051716580213
C           -8.82521523612824       -1.33843498573158       -0.87178282556652
H           -8.69632455845798       -1.26851238038950       -1.95985453435831
C           -8.90232152071408       -2.81811076703626       -0.48008301408651
C          -10.14922676591558       -0.66440727285061       -0.48295157856146
H           -8.98604883744614       -2.91201019263920        0.60080604205945
H           -9.77437478308768       -3.26794559747514       -0.94646511341198
H           -8.00544119367644       -3.33459798865944       -0.81253142717102
O          -10.03690350135122        0.17651412658016        0.53827735049821
O          -11.18741167074519       -0.89263322825497       -1.03891865187175
