42
 energy: -62.486133512342 gnorm: 0.000480426332 xtb: 6.7.1 (edcfbbe)
N           -1.79965357396118       -0.86566716116440       -2.19329625557993
H           -1.02937409844991       -1.46232707444881       -2.46882138825639
H           -1.47388668497725        0.09613680495676       -2.23633201527398
H           -3.66893495455964       -0.59253099834528       -2.57132385146196
C           -2.25015290622600       -1.17742417125839       -0.83871375358203
H           -2.34413069305622       -2.26931960359675       -0.77076634100603
C           -1.32764946563253       -0.68077842657402        0.27246885161930
C           -3.65516526924807       -0.60688075260288       -0.69363953969808
H           -1.19712738945993        0.39668562984854        0.19494920738851
H           -1.77128020286474       -0.90091837147859        1.23741179326194
H           -0.35413287520494       -1.16191998264169        0.20299553558876
O           -4.29516172691868       -0.38485835448383       -1.84738965856288
N           -4.12851833536730       -0.41865667657548        0.45973929803178
H           -5.37454131074092       -2.24496706626761        0.97329742707573
C           -5.47814725529479        0.10065560902548        0.63962687712044
H           -5.61103277976843        0.16215135174959        1.72959647166857
C           -5.67848253831114        1.48815824936216        0.02175035101707
C           -6.45874688586056       -0.92668746902253        0.11923654786610
H           -4.77706787576945        2.07422738656016        0.21694011857574
H           -5.77827848637257        1.36599211577676       -1.05650370648938
C           -6.89772575921478        2.23639482609936        0.57270450844447
O           -6.21068857766626       -2.20337192205024        0.48776722897742
H           -7.73264006719839        1.53343720954796        0.64071512757229
C           -6.62028720657765        2.80830768576029        1.96166961705719
C           -7.28430416574413        3.36462381421517       -0.38230467722530
H           -5.80877171966403        3.53219095954901        1.91793592824478
H           -7.50479519617795        3.31056032825798        2.34659031060814
H           -6.34365605022544        2.02709279462659        2.66526907100510
H           -7.54098164765573        2.97435855965798       -1.36398744908519
H           -8.14261267959277        3.91039104082447        0.00212315016832
H           -6.45794613244635        4.06380816314613       -0.49470217932111
N           -7.42489257779249       -0.58972580904469       -0.60940916506997
H           -8.13781269559450        0.63139735929253       -1.71692496675743
C           -8.36380725096050       -1.54509662193851       -1.14733558816687
H           -7.86353498676437       -2.45286084520017       -1.50823888083194
C           -9.42372325626046       -1.94242361736070       -0.11462049990443
C           -9.06579939100501       -0.86116837385268       -2.33167257154206
H           -9.90173276100359       -1.05206395601222        0.28921473742522
H          -10.17540599711860       -2.56325262179873       -0.59386350010201
H           -8.96028155862856       -2.49646286488827        0.69793947961837
O           -8.78594404943915        0.43148509571263       -2.43543594632483
O           -9.80738221662619       -1.44071799771862       -3.07572458545491
