42
 energy: -62.486133512891 gnorm: 0.000479421331 xtb: 6.7.1 (edcfbbe)
N           -0.77740041484937       -0.15477272945807       -0.92344961861051
H           -0.03629200907613       -0.68479189420523       -1.36461672354357
H           -0.44462719094524        0.13699688144110       -0.00865782038995
H           -1.96327274534021        1.26251758719976       -1.32959469856168
C           -1.98929485953600       -0.95850126189105       -0.77886764312119
H           -2.15349324992775       -1.47103993170657       -1.73635873633114
C           -1.93124948300178       -1.99209015851099        0.34412906073519
C           -3.15709163751552        0.01617748955368       -0.60293031397573
H           -1.75342488601198       -1.49775434991992        1.29685721280738
H           -2.87288884327805       -2.52637186732354        0.41026065457411
H           -1.12974260266753       -2.70466332013146        0.15984343188524
O           -2.90142268440738        1.25380283920282       -1.04248643359617
N           -4.20931397177122       -0.41681361605213       -0.06981043831429
H           -5.07668876532708       -1.80463461714975       -0.93466473280835
C           -5.48559746320349        0.23911513087687        0.10312239678342
H           -5.63660192587809        0.33494052521960        1.18464216157813
C           -5.61437886848945        1.62496343914230       -0.55553283631210
C           -6.52653646488891       -0.74461044950955       -0.41916255504888
H           -4.83332669334374        2.25946782203774       -0.13324133655000
H           -5.40824840075844        1.51378344158399       -1.62274705143943
C           -6.96075390406280        2.33365266746796       -0.38837400280428
O           -6.04941840444512       -1.83396287723023       -1.03939210210468
H           -7.73169327015653        1.74251916950908       -0.88767138455783
C           -7.34126970174856        2.50615122004283        1.07952276444462
C           -6.89054624857326        3.69874078442578       -1.07228165449813
H           -6.56821098697245        3.05972822824864        1.60942303614161
H           -8.27362618178803        3.05966188024757        1.16055682367749
H           -7.47447617789305        1.54280832732071        1.56424479251094
H           -6.62735907042453        3.59162318549154       -2.12197659121052
H           -7.85278792037111        4.20084748726140       -1.01087501036902
H           -6.14275847442914        4.32838542804377       -0.59417396788184
N           -7.75502412848928       -0.52212957606516       -0.24179776738358
H           -9.16163406486007        0.55788084792111        0.28301671874584
C           -8.75835347675209       -1.44460234391925       -0.72950354190296
H           -8.54971882790913       -1.77046122639495       -1.75604543994306
C           -8.87197042129136       -2.68330182094575        0.16768854050423
C          -10.10874897106600       -0.71665962045059       -0.70259978382920
H           -9.04325426899601       -2.38020222210781        1.19884656673787
H           -9.70522206593650       -3.29453036097319       -0.16736165000357
H           -7.95383437989321       -3.26266737115276        0.11550284559460
O          -10.09032916663227        0.41593712532803       -0.00993489637929
O          -11.09430798747403       -1.14716572145022       -1.23461326317725
