42
 energy: -62.486133514894 gnorm: 0.000478879433 xtb: 6.7.1 (edcfbbe)
N           -1.46586523420682       -1.66012660134412        0.96164034835821
H           -0.45982611489562       -1.77191250635916        0.94331556227493
H           -1.87918517230707       -2.58025575635920        0.83669880578649
H           -2.84147790092641       -0.82860426198054        2.02132567998927
C           -1.91758436037219       -0.76136038765151       -0.09791846663646
H           -1.25935159487622        0.11666105647186       -0.08715817915747
C           -1.91460012362853       -1.37173847320829       -1.49926531129929
C           -3.30422693883552       -0.26936965514625        0.29348366669522
H           -2.55014531277613       -2.25549974883960       -1.52705457219944
H           -2.29223252265459       -0.64535150785192       -2.21138967964086
H           -0.90455926689659       -1.65838362147298       -1.78488870812541
O           -3.60363494681718       -0.38803171741140        1.59288861265787
N           -4.05526315488003        0.23978216928526       -0.58179661425351
H           -5.02063645995060       -1.14713965699223       -1.64573639899397
C           -5.39069664504827        0.68729414911747       -0.23108856855205
H           -5.46637406554344        0.96741901432140        0.82474521005973
C           -5.72105073398901        1.89019908806300       -1.13184894556130
C           -6.34421749911596       -0.45766659437345       -0.49436946297453
H           -4.96033791587133        2.65150275781169       -0.94669680068756
H           -5.61584094847167        1.56732353780325       -2.17029164293609
C           -7.11105733328734        2.49731202716730       -0.92709337354573
O           -5.91186416612646       -1.40353496726574       -1.34751453943594
H           -7.86041215539028        1.71518154610417       -1.07933676773822
C           -7.28214295557126        3.06821829542744        0.47821057641609
C           -7.34152347152833        3.59406488272861       -1.96606089348152
H           -6.53652411122976        3.83786883005482        0.66826605634826
H           -8.26857014358762        3.51315673701312        0.58233341276227
H           -7.18072330468364        2.29244077893820        1.23174305790082
H           -7.25063829668261        3.19796113357041       -2.97483194650964
H           -8.33676475460122        4.01662519316359       -1.85374763970358
H           -6.61342915720566        4.39350366186973       -1.84389989688675
N           -7.48997036059765       -0.44910054037492        0.02838021440924
H           -8.83685817293342        0.47556370888623        0.83716432312531
C           -8.45493295635566       -1.49184973273973       -0.23904395020978
H           -8.47340633493926       -1.77026236889026       -1.30084927404627
C           -8.17612773798397       -2.74704746955013        0.59482264750334
C           -9.83586026391902       -0.94542595318453        0.15267570623156
H           -8.10087024680154       -2.48319782750730        1.64784362501919
H           -8.98962978541081       -3.45452717699653        0.46087058412227
H           -7.24241176898371       -3.20354461573245        0.27579474085512
O           -9.78647720811380        0.21432482623179        0.79592368291045
O          -10.85888966318865       -1.52449808091733       -0.08730981447158
