42
 energy: -62.486133512319 gnorm: 0.000480171673 xtb: 6.7.1 (edcfbbe)
N           -2.23149264037801       -1.34184174307929        1.56563161902661
H           -1.65248335157635       -0.52751784526299        1.73963322041553
H           -1.64122572808078       -2.16318095884129        1.61029140507245
H           -3.98523428715475       -0.85476773772938        2.23446662984414
C           -2.89232938589234       -1.24413863796405        0.26630040218969
H           -2.25526981819838       -0.84270632242083       -0.53331802618660
C           -3.42015356868677       -2.61918813167780       -0.14808600576728
C           -4.09368080581976       -0.33517872885936        0.43916709000482
H           -4.06044924409120       -3.02438800626647        0.63269328835134
H           -3.99501508185119       -2.52494970128585       -1.06446652227528
H           -2.59460586836149       -3.30699592529682       -0.31817866951244
O           -4.60652376221734       -0.33305322695371        1.68288325676400
N           -4.51880672892225        0.32658512232669       -0.54092446635878
H           -7.76330315448853        1.11351676109171       -1.91606930937699
C           -5.75637419675447        1.07452645337058       -0.45096872188341
H           -5.83467191042989        1.55742018418368        0.53622186272444
C           -5.74982057328266        2.13874225448661       -1.55303198220780
C           -6.91555340135554        0.09000697572697       -0.52700452966687
H           -4.72893651382926        2.51887273439226       -1.61771678728383
H           -5.95559556010987        1.66447061814911       -2.51741842115413
C           -6.70601133075995        3.31534602136690       -1.29735726738579
O           -7.91696367600318        0.31038812240754       -1.40238732985360
H           -7.64634016653575        2.94663671915999       -0.86810893626968
C           -6.09566202376741        4.29751422785162       -0.29912014602593
C           -7.02004417753796        4.03520561719871       -2.60860659224693
H           -5.18743945383399        4.73501873748298       -0.70792096851978
H           -6.79523007985319        5.10080410903888       -0.07980051765807
H           -5.84595935152299        3.80037849705878        0.63490953873810
H           -7.51309235766983        3.37275865893530       -3.31819897431388
H           -7.67425324638848        4.88497654177875       -2.42867668860291
H           -6.10279815810568        4.40088186939759       -3.06477672163129
N           -6.89094795922632       -0.90516231354286        0.24039378595974
H           -6.17838777913059       -1.63441237278794        1.74946694393145
C           -7.89856556837408       -1.93470499924784        0.25432256750673
H           -8.90606969983897       -1.51104358002479        0.36289086467484
C           -7.86519616150560       -2.80841505833347       -1.00356193243491
C           -7.61157533559928       -2.81960738457836        1.47952470075610
H           -6.85482367935738       -3.17702391407256       -1.16962545807504
H           -8.53401767781212       -3.65330771606425       -0.86599088970110
H           -8.17982207043004       -2.23202441096167       -1.86926662601742
O           -6.54418244620084       -2.45260456759966        2.17353314869894
O           -8.28728328994094       -3.76986279286487        1.76718743097166
