42
 energy: -62.486130161514 gnorm: 0.000494035729 xtb: 6.7.1 (edcfbbe)
N           -0.74712048505599       -0.03290368291973       -0.32242771332243
H            0.07306422499212       -0.23152123441212       -0.88180510635501
H           -0.58164720793057       -0.40763884353897        0.60758647208850
H           -1.91565270123465        1.44768050600907        0.07516866490609
C           -1.94074083348643       -0.64567639411973       -0.90275343509831
H           -1.92775219858656       -0.43270160994195       -1.97931464646982
C           -2.05262608356187       -2.15462208465219       -0.69366881184936
C           -3.14594845545434        0.09209903058421       -0.33427987605310
H           -2.05317111613082       -2.38871359898312        0.36957714500916
H           -2.97942832209901       -2.51213984775716       -1.12965089170691
H           -1.21578479959312       -2.66558307319220       -1.16536257771031
O           -2.88430836241385        1.31975142877499        0.13875355277715
N           -4.27380767493154       -0.46328777509151       -0.35550109053397
H           -5.20890123317787       -2.07382504266455        0.66978721088039
C           -5.47790620911120        0.18506036142805        0.13439974314117
H           -5.34347942426571        0.45187554977394        1.19375820187341
C           -5.85003342146393        1.44271123626320       -0.65901481799834
C           -6.53888980333162       -0.89337562493980        0.04716166593659
H           -4.95785981238055        2.06240522739377       -0.75782564597885
H           -6.15794413285090        1.12497091308879       -1.65619792735498
C           -6.96230156733644        2.27430579187358       -0.00895308153322
O           -6.17250656349737       -2.08462684101854        0.55947687470469
H           -7.74839250990115        1.59653059493549        0.33525108296357
C           -6.43570588990410        3.06514837264693        1.18704876408886
C           -7.55787171978728        3.23220897062126       -1.03936111833744
H           -5.65536812479063        3.75459058004576        0.87130088736327
H           -7.23848528330779        3.64065555877413        1.64225224319044
H           -6.02156368711760        2.40733169960869        1.94710466613251
H           -7.98340337109007        2.68734394079503       -1.87847153329550
H           -8.34476455438972        3.83286691874946       -0.58943709903226
H           -6.79001818631588        3.90376640127618       -1.41825259258616
N           -7.63132808061540       -0.69093566865514       -0.54203143079640
H           -8.63204757856828        0.31936003623441       -1.65546750334398
C           -8.62689306989747       -1.72693267417610       -0.68780234579057
H           -8.17811746484697       -2.68964588806008       -0.96448531908194
C           -9.44106067936893       -1.91366077984066        0.59708201344246
C           -9.57941208739431       -1.27843043245925       -1.80646947970754
H           -9.86577076322442       -0.96180891013854        0.91032852021111
H          -10.24646269417780       -2.61895461542001        0.41290768933255
H           -8.79952432852195       -2.29402418026185        1.38807795127383
O           -9.39543478009841       -0.01847644723601       -2.18217079388400
O          -10.41982022515900       -1.99320371380893       -2.27738345189265
