42
 energy: -62.486133507349 gnorm: 0.000479728057 xtb: 6.7.1 (edcfbbe)
N           -1.42707450963479       -1.22394648444826       -1.15547476256069
H           -0.73081037432816       -1.95686601222086       -1.09677577080804
H           -0.93559832548848       -0.33413124975003       -1.13980136257423
H           -2.94058578221498       -0.78433682918956       -2.18417443724727
C           -2.35958930346135       -1.29352976597469       -0.02992162870290
H           -2.64791039709206       -2.34530582620591        0.09310417916584
C           -1.80812861257391       -0.76519994905050        1.29128277883427
C           -3.62245329741175       -0.54897288306159       -0.44191190762319
H           -1.48419607681867        0.26719030105912        1.17527525517895
H           -2.58995332141511       -0.79548272870009        2.04211416692131
H           -0.96401728643536       -1.36758474880147        1.62037408799288
O           -3.75712601617400       -0.41032675074235       -1.78882399436906
N           -4.40956460896285       -0.13894617496017        0.44052177488717
H           -5.59798752092191       -0.26190283731194       -2.11971803198168
C           -5.66687180150192        0.54209221888099        0.21109411885040
H           -6.07522981211350        0.70524493949922        1.21289715495400
C           -5.47413061507746        1.89541396851035       -0.49540253890327
C           -6.66571677872753       -0.31884773934060       -0.53350830648069
H           -4.83014448434810        2.51088082999092        0.13697059683316
H           -4.94869473374089        1.73775848698257       -1.44126866070807
C           -6.78508474282425        2.64013006308268       -0.77198694289571
O           -6.47375518838361       -0.57256221017909       -1.83580984211185
H           -7.41921946770533        2.01486842692593       -1.41049333557671
C           -7.54955023286130        2.94389185609317        0.51384489085485
C           -6.47797501519367        3.93608787866682       -1.52135559080385
H           -6.91295621649443        3.47476309498214        1.21856040075753
H           -8.41288105275084        3.56765653926884        0.29473305683539
H           -7.90534986325746        2.02991363958298        0.98105799234544
H           -5.94571510028528        3.73303394642324       -2.44835015412324
H           -7.39837658296352        4.46079515148481       -1.76508579330226
H           -5.86259111049271        4.59071981506948       -0.90758518815182
N           -7.64536219385034       -0.77285240986649        0.11990807806243
H           -8.70470084890369       -0.74447700994080        1.58838882872975
C           -8.65606483088898       -1.59784320572508       -0.50468626157556
H           -8.95131951363098       -1.20884422339614       -1.48735810191397
C           -8.18371268380284       -3.04686493078702       -0.66811309235774
C           -9.88184878154522       -1.59092524477578        0.41999425280492
H           -7.84064263357987       -3.43445064076352        0.28916217879919
H           -9.00981772684472       -3.65535229912314       -1.02515144938390
H           -7.36582470048326       -3.09129797152052       -1.38293332272963
O           -9.64111351111388       -1.05343209725049        1.60998532421117
O          -10.94597309472333       -2.04372904656476        0.10115148622006
