42
 energy: -62.486133520682 gnorm: 0.000478981436 xtb: 6.7.1 (edcfbbe)
N           -0.77039356324237       -0.10983002451021        0.02983758394578
H            0.11303185697487       -0.17321679622939       -0.46085098824880
H           -0.72011317927321       -0.73247757027330        0.83157913015547
H           -1.99290383803383        1.23685445897156        0.69220112697995
C           -1.88188562374909       -0.49964591762122       -0.83611550942021
H           -1.74317440161545        0.01359495414656       -1.79635782022351
C           -2.00492018178538       -2.00167074526793       -1.08530026247609
C           -3.14952431644282        0.07459839332357       -0.22111684409612
H           -2.12446368030958       -2.53183591703450       -0.14189865950029
H           -2.87308305838480       -2.19540263200064       -1.70632163981681
H           -1.11548293998482       -2.37629167819998       -1.58769113897631
O           -2.95974621614173        1.11453589429111        0.60396476030375
N           -4.26885394022254       -0.41713093076437       -0.52098058942752
H           -5.16197231879441       -2.18724254010048        0.09319824023579
C           -5.49697997487609        0.12550771192588        0.03258994783075
H           -5.38637357871127        0.26469241196628        1.11934961374896
C           -5.87034856581962        1.46827257901082       -0.60731428481668
C           -6.54411929764747       -0.94376907684764       -0.19978596246517
H           -4.96703564617130        2.07735643686660       -0.67243306043496
H           -6.21992216707504        1.26785365903394       -1.62081822379840
C           -6.93809969751562        2.24278761833934        0.17419537068532
O           -6.13186821171097       -2.20206977014305        0.04755397346876
H           -7.70756371041101        1.53786738655694        0.50140699114430
C           -6.33538675964863        2.92076511903393        1.40312232805612
C           -7.58416224030340        3.29120196034031       -0.72965806543962
H           -5.59091468008306        3.65512397801568        1.10233982367250
H           -7.10926227713033        3.43015679624283        1.97260439828328
H           -5.85344297328178        2.19920606565221        2.05795337181693
H           -8.06536414926956        2.82605909644905       -1.58634460687917
H           -8.33573797121014        3.85374199061018       -0.18104867287871
H           -6.83312750909783        3.98956234718242       -1.09357793810215
N           -7.67800563415346       -0.65452618410516       -0.66154204214516
H           -8.77342340454168        0.53495990008190       -1.46670342265274
C           -8.67536423050649       -1.66335401746238       -0.93306892105011
H           -8.24462676832189       -2.53742682234842       -1.43825798460324
C           -9.37558335176527       -2.13063378536695        0.34760772932120
C           -9.72361282032081       -1.02086137098674       -1.85424765055387
H           -9.77447545133156       -1.27383324592997        0.88729553184920
H          -10.19192132436733       -2.79842512354493        0.08721917546763
H           -8.66771325840573       -2.65428636189499        0.98521365351368
O           -9.57879088899856        0.29231599661291       -1.98336311480289
O          -10.59947931806930       -1.64511011318852       -2.38550034858282
