42
 energy: -62.486133515736 gnorm: 0.000479496265 xtb: 6.7.1 (edcfbbe)
N           -0.90833213580057       -0.65567452893920        0.63889378852288
H            0.05596357504648       -0.74366708319432        0.34292939830744
H           -1.13706192176783       -1.47927140700379        1.18909487972908
H           -2.08630077414244        0.67425994313168        1.42360235669035
C           -1.80506457750437       -0.55992534298688       -0.51117236828874
H           -1.37903845141334        0.18783122046664       -1.19290418605547
C           -2.01409394338928       -1.86775275483365       -1.27228716829730
C           -3.11643760193212        0.01794269522006        0.00064158084770
H           -2.46304919916546       -2.61599345921724       -0.62215652716969
H           -2.67263338940240       -1.69934756316750       -2.11759539535240
H           -1.06119616843059       -2.24569850461832       -1.63766582381197
O           -3.01072163113464        0.75617256007533        1.11348262086038
N           -4.18501248026763       -0.18595150356554       -0.63330805884941
H           -5.08307425673462       -1.70374130458168       -1.14409555056931
C           -5.44903020479553        0.35764818676362       -0.17496086410507
H           -5.42502383979792        0.59920232432019        0.89437091742545
C           -5.70419708312226        1.64424440409844       -0.98456550345926
C           -6.49146714965419       -0.71907485910351       -0.41450016275677
H           -4.88790891730486        2.33020809067496       -0.74327900555975
H           -5.62059447726421        1.38814125707933       -2.04362481159186
C           -7.03863406949522        2.35194154362929       -0.74450477987403
O           -6.03209007443799       -1.85792464725198       -0.95153785679802
H           -7.84400962416855        1.69176397560994       -1.07428643018395
C           -7.24791501647743        2.69286938176505        0.72801989115272
C           -7.08744677820568        3.62485883603202       -1.58901896120908
H           -6.43078722344912        3.31144681561152        1.09426758026804
H           -8.17749610100302        3.24205045205364        0.85573995263615
H           -7.29849542195848        1.79107169575883        1.33172026413116
H           -6.94040326937569        3.39671276878675       -2.64205170246295
H           -8.05227347186790        4.11280933798441       -1.47687362780867
H           -6.31201842174169        4.32162601230577       -1.27653020847788
N           -7.70827456767074       -0.49746846600248       -0.16547250357787
H           -9.07760032913601        0.59976836954533        0.38095410266955
C           -8.71863084002835       -1.50230954138471       -0.41723758656661
H           -8.62129576744282       -1.92776638662571       -1.42423363404795
C           -8.66833824824741       -2.64484775228737        0.60429021621188
C          -10.08690651345641       -0.81759773155648       -0.29737847298462
H           -8.71845676296295       -2.24264517948894        1.61444586079686
H           -9.51408159198006       -3.30722807386143        0.44251811242503
H           -7.74338979092268       -3.20381848621953        0.48907523791216
O          -10.03033470871446        0.39733952165306        0.23471237310430
O          -11.11303803752438       -1.34423065064514       -0.62858292442355
