42
 energy: -62.486133514507 gnorm: 0.000479213927 xtb: 6.7.1 (edcfbbe)
N           -1.74439866468848       -2.12425043116439        0.68436928965823
H           -1.80904138000147       -2.06087549142665        1.69515972176633
H           -0.80399293521813       -2.42033692922477        0.45074011425455
H           -3.56625811572599       -2.55930364626601        0.22079954839876
C           -2.05229979102879       -0.83670901612644        0.06619111273820
H           -1.62025620612573        0.02648211082582        0.59016853541137
C           -1.57023017374249       -0.83174365560252       -1.38505154377612
C           -3.56717178645804       -0.68763829917971        0.07036998076465
H           -1.99800261749576       -1.67338427399078       -1.92625448901420
H           -1.87070082057543        0.09437611954137       -1.86609076326917
H           -0.48591958110307       -0.90976688019348       -1.42349804058648
O           -4.23584123222119       -1.85741679390312        0.08773158213873
N           -4.05539559119198        0.46711499297948        0.05312355526571
H           -5.44032230279208       -0.81805204867170       -1.81989692890162
C           -5.45360734527460        0.81423606922891       -0.00493708167879
H           -5.70145718081785        1.24336875771011        0.97146918568756
C           -5.59849099561344        1.90747863806817       -1.08316057199211
C           -6.44407293725881       -0.29356286012494       -0.28007685097987
H           -4.88329266965216        2.69484288145899       -0.84149586553842
H           -5.30533167428314        1.48630545283975       -2.04965579673630
C           -7.00628537973313        2.49988621387185       -1.20321098221632
O           -6.28599665994420       -1.02128183597087       -1.40232099870886
H           -7.71758326323494        1.68825059042323       -1.39027630412879
C           -7.42641258730890        3.22480035146569        0.07214624055716
C           -7.04825943563428        3.46121904207670       -2.39042570147048
H           -6.70159651057741        3.99523551720377        0.32658799828352
H           -8.39518966786875        3.69715025036847       -0.06975313987618
H           -7.51071690348060        2.53279154958642        0.90493988924632
H           -6.78147367313225        2.95140658389328       -3.31369122211702
H           -8.04646118252207        3.87556071322870       -2.50694252136738
H           -6.35124710449248        4.28242302942226       -2.23717738701041
N           -7.45615407742331       -0.39423184402383        0.46516454272700
H           -8.56134474455702        0.30084080577892        1.71920164437484
C           -8.49427069370300       -1.36431907759830        0.19437646604822
H           -8.73201877753172       -1.42163943572293       -0.87557008352983
C           -8.09638986192788       -2.75947602449230        0.68831824563616
C           -9.74688624580656       -0.91587942333484        0.95883821777497
H           -7.84874384739072       -2.72078068188183        1.74726089259776
H           -8.92576932269311       -3.44512155005669        0.53963300126410
H           -7.22816519963503       -3.10950175660358        0.13556974857827
O           -9.51361245554813        0.06704702974912        1.82155321397804
O          -10.82552966796592       -1.41757044353300        0.80470833026053
