42
 energy: -62.486133509275 gnorm: 0.000480594367 xtb: 6.7.1 (edcfbbe)
N           -0.87281814877184       -0.77866950416934        0.07291180750169
H           -0.48765870561460        0.15324865626687        0.19075736518620
H           -0.13038394030050       -1.38088026204338       -0.26336431301472
H           -2.24256325419484       -0.86479236360648        1.40867917222531
C           -1.99319896518250       -0.75995212143360       -0.86899943030610
H           -1.84731917275292       -0.08563976840082       -1.72369476369927
C           -2.26395203407536       -2.17344284170514       -1.38766940515264
C           -3.21114608007676       -0.29435290776128       -0.09626265363658
H           -2.41362525744406       -2.85895782540320       -0.55544251589659
H           -3.15597570842404       -2.16814312116973       -2.00730076956660
H           -1.42395910501888       -2.52424949770742       -1.98338568562482
O           -3.15771776430616       -0.55635260332475        1.23710510742916
N           -4.17921222790340        0.23111880960676       -0.69414351407105
H           -5.03279954059081       -1.29119537657918        1.36492057359070
C           -5.35970065976868        0.67268155739470        0.02770091500159
H           -5.09908817937044        0.98149395738410        1.05245675447340
C           -5.97224985442696        1.83589054324783       -0.75237008266311
C           -6.27805859428466       -0.52613930884007        0.11937802592679
H           -5.19340686715736        2.58641368466571       -0.89906855411280
H           -6.25311190146270        1.45303719586888       -1.73279751060447
C           -7.18485877443097        2.48051392704401       -0.07232831645648
O           -5.89167799570215       -1.50246278230964        0.96587593980493
H           -7.84652926105594        1.68590193084672        0.28433516433322
C           -6.76580418439780        3.34216486827190        1.11737146908385
C           -7.94999617462099        3.33010053875880       -1.08530235627164
H           -6.11000623382439        4.14664309883427        0.79015935724624
H           -7.63971132600898        3.78542344718048        1.58946758387646
H           -6.24169075065039        2.75500635933397        1.86754461189034
H           -8.31450566710538        2.71791996395496       -1.90629548035858
H           -8.80342782508151        3.81026957607825       -0.61228456840618
H           -7.30458329952137        4.10500147721375       -1.49344621150775
N           -7.30809202748372       -0.59894854697692       -0.59799957751090
H           -8.28137902517744        0.03624720019742       -1.96879154266258
C           -8.18662503537616       -1.74433812655977       -0.58203955931899
H           -7.62883338158714       -2.68880218325052       -0.61391132812383
C           -9.09505413616624       -1.74841054360866        0.65264144809536
C           -9.07247562591072       -1.64323338703201       -1.83406540140113
H           -9.63182533303860       -0.80415374286800        0.72234340415218
H           -9.81276110390607       -2.55935350680737        0.56708336976917
H           -8.49853046025012       -1.88564325107594        1.55106438732196
O           -8.96898293874819       -0.47694452782667       -2.45829400527147
O           -9.80089473902419       -2.52604450938218       -2.19360381298330
