42
 energy: -62.486133514420 gnorm: 0.000479522006 xtb: 6.7.1 (edcfbbe)
N           -2.97833738323852       -1.30437205603783        1.98644010197876
H           -2.00868979443914       -1.52128820123251        2.18174172444985
H           -3.44901626075537       -2.17871778902543        1.76149435431290
H           -4.52044321114286       -0.41792762455011        2.66476328732118
C           -3.09079449893229       -0.37890366744405        0.86158905756227
H           -2.41817742019117        0.46585966068155        1.06309235409503
C           -2.74857189283173       -0.97752021096526       -0.50204879533472
C           -4.50947571401909        0.16880961691945        0.88528308311400
H           -3.32644802581404       -1.88370742881788       -0.66834250522573
H           -2.99348723148695       -0.26100595067466       -1.27851430417268
H           -1.68969775331734       -1.22218839862627       -0.55415917359768
O           -5.12373024906085        0.08479027377389        2.07716151958419
N           -5.00157927879081        0.69650780199971       -0.14761761634797
H           -8.75461747365257        1.27684393969591        0.30602619097911
C           -6.37304938505005        1.13900616842884       -0.14960632135310
H           -6.52958067992392        1.90649523752022        0.62857529293995
C           -6.71523552681121        1.72654270074856       -1.53021312183180
C           -7.32061765133853        0.00133351573937        0.17801072912112
H           -6.23212619814969        1.09962101766234       -2.28006101746797
H           -7.79592879424893        1.67464691110664       -1.69161880995795
C           -6.26043118554893        3.17939059849547       -1.70762133618242
O           -8.62088743994425        0.32192656065753        0.35561831173217
H           -6.60515942306718        3.76094293445577       -0.84316987836515
C           -4.74024960369779        3.27491552766228       -1.78326948058068
C           -6.89006076035466        3.77248269725365       -2.96713603610691
H           -4.37988479554219        2.77677908928742       -2.67993940818151
H           -4.42520148495190        4.31552938303933       -1.81485449334324
H           -4.28669372493727        2.79077751058703       -0.92364960288787
H           -7.97649996542644        3.76349673873320       -2.90450015886983
H           -6.56507661432655        4.80112913824693       -3.10391267973343
H           -6.59217868510336        3.20017739174988       -3.84272504555393
N           -6.87727097115002       -1.16693452536874        0.29480739890847
H           -5.46289296961142       -2.15413495865508        0.41467949210012
C           -7.66600452154962       -2.31180395002979        0.67102859368376
H           -8.32850757215830       -2.09034122898432        1.51715181839339
C           -8.50511079504749       -2.84755248147058       -0.49285113490823
C           -6.65837083911696       -3.39300889641235        1.09742944698373
H           -7.86982503567801       -3.02490380715794       -1.35841869887971
H           -8.97434530339562       -3.78160619246443       -0.19696301511928
H           -9.27220676170936       -2.12461386841086       -0.75836876311108
O           -5.39978633162239       -3.06282680801978        0.81579194051342
O           -6.96994205153133       -4.42667193136388        1.61781122794242
