42
 energy: -62.486133510360 gnorm: 0.000480382393 xtb: 6.7.1 (edcfbbe)
N           -1.29077690616857       -1.78531840285997        0.62810145043165
H           -1.34472345421237       -1.69892013296264        1.63780720150298
H           -0.31778796908698       -1.91778379938270        0.37842983089792
H           -2.97147934203105       -2.56592378710001        0.17022741045851
C           -1.83790279061822       -0.59544247430449       -0.02207062602392
H           -1.56260280597453        0.34827220320850        0.46690606518034
C           -1.38791743879244       -0.55284637220421       -1.48293792777598
C           -3.35456117247960       -0.72783524570153        0.01279807636180
H           -1.65709681784484       -1.47888090914020       -1.98724152610896
H           -1.86748480207072        0.28018173203069       -1.98824049589456
H           -0.30918417425875       -0.42553769957664       -1.54258236226903
O           -3.77414065399644       -2.02083369113330        0.02567364585108
N           -4.04758624163519        0.30907087955713       -0.01087918321594
H           -5.24243290644567       -1.75587065951766       -1.07613813836285
C           -5.46407712093227        0.53567644671519        0.01317796876297
H           -5.67132158316778        0.99007240389065        0.98755617363728
C           -5.71608500580357        1.60092882945673       -1.08603769741435
C           -6.46961331800891       -0.58111273936049       -0.19203381809412
H           -4.90745190577888        2.32880563803975       -1.00129487146129
H           -5.62007938385165        1.10875102046224       -2.05758086430773
C           -7.06241870064949        2.32507032692355       -1.02037543726394
O           -6.19800944856943       -1.61533049680250       -1.00071331179079
H           -7.86455746922893        1.58177146214394       -1.01623999319035
C           -7.18628095728888        3.18355176980429        0.23532279254579
C           -7.22501874281623        3.19831777270250       -2.26419411115246
H           -6.39426478897441        3.92928614366372        0.26449335970538
H           -8.14399719466996        3.69786150504663        0.24161946366325
H           -7.12537758423714        2.57825237646933        1.13545391315929
H           -7.17032498483375        2.59799145112807       -3.16948227252683
H           -8.18835707082378        3.70158592608208       -2.24738837598922
H           -6.44310273204545        3.95400660394230       -2.30452860602110
N           -7.61818912743054       -0.39027444466838        0.30127886172991
H           -8.82891114471983        0.71780993030222        1.07076316275774
C           -8.70802717602056       -1.31089331974918        0.06350700479370
H           -8.77124856577392       -1.60232782246334       -0.99291839548894
C           -8.58460329752859       -2.57815211930031        0.91678602761656
C          -10.00610199914249       -0.58807383556064        0.45091284872027
H           -8.47397948568939       -2.30951011736777        1.96560004313396
H           -9.48084526917273       -3.17991318751398        0.79531299190200
H           -7.71662082054789       -3.15287844708525        0.60376390612796
O           -9.80525724866629        0.57832528924782        1.05345074779778
O          -11.09639165879474       -1.04395568136105        0.24286978493836
