42
 energy: -62.486133513483 gnorm: 0.000479493782 xtb: 6.7.1 (edcfbbe)
N           -0.86859246228154       -0.43399720736913       -0.05959478490726
H           -0.08034542447527       -0.97249369358875       -0.39792483747660
H           -0.80892153716082       -0.41129165240376        0.95535979856250
H           -1.77832909651925        1.22334650625551       -0.38265042585236
C           -2.13333852264541       -1.04649720077627       -0.46443345352973
H           -2.05533173202093       -1.26762011782100       -1.53767579786308
C           -2.49616916041718       -2.32460447900279        0.28741341027214
C           -3.21639990313887        0.01877345321271       -0.31618482299060
H           -2.54092182820895       -2.12936949833494        1.35660570881801
H           -3.47288595340564       -2.66805038494602       -0.03521130997930
H           -1.75751147708005       -3.10074420196554        0.09801591781127
O           -2.75518532165430        1.28206251919766       -0.35074868902324
N           -4.40745078780174       -0.35142157250934       -0.18314824498775
H           -5.79549313543498       -0.37580823680308       -2.29231551040624
C           -5.56868919257728        0.50232478705479       -0.07451179923257
H           -5.75933877302887        0.66022173115635        0.99217731819208
C           -5.49967829841759        1.85852032829037       -0.79818901561729
C           -6.71027383828585       -0.32812892290572       -0.62321802393935
H           -4.77711430400468        2.49256650932080       -0.28409767478219
H           -5.12511711653189        1.70217468123732       -1.81528395510895
C           -6.84989381655414        2.58207677611485       -0.86933463301194
O           -6.63229612785926       -0.68130048299287       -1.92048317078861
H           -7.56988520781388        1.94500118294311       -1.39578014659572
C           -7.40291162383429        2.88290385457753        0.52114345338045
C           -6.68492226624685        3.87792117834398       -1.66211034870135
H           -6.67311190041545        3.43655236674727        1.10818870323884
H           -8.30550846840947        3.48394547803321        0.44143417657952
H           -7.65530149800687        1.96561880081887        1.04578423441561
H           -6.30809028236514        3.67699124736660       -2.66281898272611
H           -7.63903181948282        4.39102714484337       -1.75395268555510
H           -5.98503935677110        4.54164572316104       -1.15885725095511
N           -7.64298276073654       -0.69123831036214        0.13984022045831
H           -8.57342424527452       -0.51106661022894        1.68884202501162
C           -8.74195020682645       -1.50361744294874       -0.33580885492246
H           -9.09522180386120       -1.17923071544721       -1.32241531709401
C           -8.35287696231820       -2.98421377040530       -0.41073748414522
C           -9.88731795407833       -1.35699545737693        0.67609227360207
H           -7.96485395523067       -3.31436881318171        0.55063773332824
H           -9.22959700145859       -3.57348469943024       -0.66421426977585
H           -7.58737321794049       -3.12674513958982       -1.16909139614670
O           -9.51983326999346       -0.76080757736345        1.80455944488202
O          -10.99767964384835       -1.76260390892683        0.47363349554776
