42
 energy: -62.486132273825 gnorm: 0.000626635370 xtb: 6.7.1 (edcfbbe)
N           -0.93164515689541       -0.25875090006379       -1.36023289859425
H           -0.19435128563210       -0.86237747989942       -1.70335704114696
H           -0.52974476139820        0.33871773949387       -0.64256276531116
H           -2.29537747213953        0.88001020087000       -2.02496383358183
C           -2.03370634019831       -1.03662901120036       -0.79894988086295
H           -2.26060226209569       -1.83778137677490       -1.51490727635498
C           -1.74329469627718       -1.64966054594517        0.56943164714378
C           -3.26051133952214       -0.12131944353270       -0.76937327731626
H           -1.48292147124166       -0.86758718063489        1.27994323687610
H           -2.62264858775515       -2.16564252825667        0.94055049955364
H           -0.91737965088697       -2.35493766263507        0.50051007253094
O           -3.18731644695303        0.91035120080112       -1.61776921507409
N           -4.19381738687363       -0.41407678724406        0.02071050577775
H           -5.06969558178447       -1.98663695194295       -0.53390175520910
C           -5.49173530442518        0.21249834073095        0.15902431164035
H           -5.64443532191063        0.30080760669899        1.24264900637250
C           -5.62506583025408        1.60313658539516       -0.48286969533193
C           -6.51395230580956       -0.79688480963732       -0.34793483839369
H           -4.80303615959783        2.20766636150326       -0.09082632953373
H           -5.47771122973829        1.50488246847111       -1.55924507563180
C           -6.93978443293447        2.35215998966602       -0.24467684897067
O           -6.02868762974308       -1.99483225754541       -0.71667651530600
H           -7.72663618405852        1.85332102415657       -0.81393812997846
C           -7.34051554182463        2.38925044965530        1.22729400798679
C           -6.79831138786337        3.77630163000090       -0.78240458306163
H           -6.54181050447196        2.81813261178714        1.82984132171882
H           -8.22940791662487        3.00279343712358        1.35437976119707
H           -7.56186025155703        1.39154742681778        1.59680607757343
H           -6.49524652231299        3.76495050446833       -1.82662410553664
H           -7.74563960991750        4.30438568282868       -0.70686936237579
H           -6.05153586335434        4.32795805250121       -0.21452257810400
N           -7.74054243156286       -0.50861026917487       -0.38158488611466
H           -9.18499221900533        0.61448833347035       -0.05696447718688
C           -8.71847417309768       -1.46992523755480       -0.84710413149408
H           -8.42250781730914       -1.91638238515864       -1.80401089672164
C           -8.95394406462608       -2.59439688999771        0.16976767073980
C          -10.04772615956668       -0.72674891733511       -1.03006560698108
H           -9.22129087090241       -2.17201675771647        1.13664999623806
H           -9.76516488818320       -3.22759548005200       -0.17839878432695
H           -8.05195899026556       -3.19053662354385        0.27923949503440
O          -10.08179507725993        0.45704659587025       -0.42914121355158
O          -10.97941012671531       -1.18910253237148       -1.62798654776035
