42
 energy: -62.486133520622 gnorm: 0.000478842640 xtb: 6.7.1 (edcfbbe)
N           -1.17532602831323       -1.48272903169120        0.17999435722371
H           -0.23499535475304       -1.61299370128687       -0.17317651745666
H           -1.58611674472976       -2.40555644147241        0.29642589558209
H           -2.12136820034428       -0.49153934614390        1.53435405823942
C           -1.98148252103542       -0.70067631196770       -0.75799818859268
H           -1.38563805847926        0.17500662184997       -1.04695056692366
C           -2.41801569153217       -1.45038238671151       -2.01393772443166
C           -3.17950417061298       -0.17476097319609        0.01272250308016
H           -2.98735156256852       -2.33692481549170       -1.74258240542097
H           -3.05570549764225       -0.80788119216445       -2.61115831360893
H           -1.55134728515972       -1.74970041319552       -2.59971449573795
O           -3.01329789483388       -0.12974621762315        1.35790613708614
N           -4.22568854905244        0.16449572466203       -0.59241194331956
H           -5.22342658749530       -0.86382860656696        1.90630252738933
C           -5.34370321917292        0.73784286374561        0.13428351283294
H           -5.02738018905267        1.14720764095865        1.10492948812106
C           -5.95569703328967        1.83337392735433       -0.74157034477568
C           -6.28292111657305       -0.42237226737033        0.36615867663132
H           -5.19568955021724        2.60166561136811       -0.89734530237617
H           -6.17963948284511        1.38307054494049       -1.70805790223665
C           -7.22162374396158        2.47272058982639       -0.16387225796794
O           -6.02300420165319       -1.17575529187041        1.45935173048982
H           -7.93578848488038        1.67717473651159        0.06845002585429
C           -6.92980637028982        3.25919798436806        1.11269205976925
C           -7.84599282233809        3.39327708029594       -1.21091409863395
H           -6.17099089394201        4.01692657417967        0.92746439498659
H           -7.83156410313908        3.75764881962826        1.46113831859078
H           -6.58057072402070        2.60740864873109        1.90952934347238
H           -8.09019367894234        2.83888061678258       -2.11345882560450
H           -8.75895648373000        3.84286063469402       -0.82762736685864
H           -7.15541436583885        4.19190391814116       -1.47361905456273
N           -7.17140137013803       -0.71055149815086       -0.47436980002459
H           -7.82573984765536       -0.52797044258484       -2.14530715961524
C           -8.01905090606934       -1.87009305945244       -0.33349845154550
H           -7.45923284451707       -2.75157269902632        0.00463561771476
C           -9.17003454962232       -1.61083961294071        0.64498266130015
C           -8.61712455297666       -2.15947753246675       -1.71931729797808
H           -9.71897573287484       -0.72015474768240        0.34541124098822
H           -9.84435000615423       -2.46254318106667        0.63907301059460
H           -8.77786844798615       -1.46614611388778        1.64867058889382
O           -8.38955988660021       -1.19667503312892       -2.60285364191506
O           -9.24465249791803       -3.15181744354470       -1.96579935355483
