42
 energy: -62.486133505342 gnorm: 0.000481287326 xtb: 6.7.1 (edcfbbe)
N           -1.07044882842163       -0.97631352861852        0.36009467846010
H           -0.17952404046009       -1.20512946559196       -0.06337733565534
H           -1.30757657781066       -1.73314189358867        0.99633021523119
H           -1.96148502543356        0.49271568598470        1.21813015503682
C           -2.11369734596561       -0.84057443268267       -0.65697251539125
H           -1.70358399647025       -0.22200623481522       -1.46538419784745
C           -2.61869092731269       -2.15897012117022       -1.23764297706030
C           -3.25097486268523       -0.04337306610259       -0.03499529046024
H           -2.98262228752181       -2.80414106623535       -0.44017465343853
H           -3.44207599131865       -1.95723657553169       -1.91416794401014
H           -1.82222581148650       -2.67180374514624       -1.77304367955334
O           -2.90341008355302        0.69146661680444        1.04350090116017
N           -4.39812396664348       -0.10104902147074       -0.54180376494824
H           -6.07012069173968       -0.54668693806233        1.98488919594629
C           -5.49478499507747        0.68459204115085       -0.01520129831873
H           -5.24543076872588        1.13067771555265        0.96070295845347
C           -5.80142787770369        1.79155631571416       -1.03263620882070
C           -6.63502627556550       -0.29110240479622        0.15435469907161
H           -4.94884937152381        2.47436081137140       -1.03357586784344
H           -5.86355147255889        1.31685681144431       -2.01153471040319
C           -7.08833879466966        2.58193477089531       -0.77693778571029
O           -6.74520075163278       -0.87125403868442        1.37566830058792
H           -7.93766990341294        1.92685612110667       -0.99739783647264
C           -7.20028058246439        3.07109667973731        0.66542376694903
C           -7.14571172597660        3.76770073939654       -1.73903519384437
H           -6.30663667560918        3.62281501786583        0.95030222770022
H           -8.05721614743128        3.73275998566182        0.77114371942685
H           -7.33439302820539        2.24272278646971        1.35701570759580
H           -7.05144997423725        3.42908620894831       -2.76764830584638
H           -8.09008811283066        4.29704555186365       -1.63625463384033
H           -6.33767880430173        4.46562088311551       -1.53036861251454
N           -7.38340792378343       -0.58047266541442       -0.81444424612368
H           -9.10226310385245        0.55165346965560        0.07263475252922
C           -8.41363921215116       -1.59173786294644       -0.68818086765736
H           -9.01064133971081       -1.51979870242962       -1.61057130298369
C           -7.84339554277230       -3.00378575190092       -0.57308237899171
C           -9.37687654891149       -1.30544898577731        0.47053668661390
H           -7.25546432556184       -3.09084173916350        0.33622260861135
H           -8.65988675387784       -3.71860980922326       -0.52861083326201
H           -7.21191913906681       -3.21703635967985       -1.43138805871217
O           -9.62867957198839       -0.00174837399732        0.67133965338126
O           -9.91172209908858       -2.15128123404152        1.12507536568585
