42
 energy: -62.486132293389 gnorm: 0.000622317921 xtb: 6.7.1 (edcfbbe)
N           -1.24371024196461       -0.85199722970763        0.91088712051165
H           -0.29520853903107       -1.11534823927025        0.67330955362478
H           -1.59231873036156       -1.53502211828228        1.57831049213079
H           -2.28876555970780        0.66965787071485        1.46557771204085
C           -2.09740857099381       -0.84206171417330       -0.27629567091555
H           -1.55878658507367       -0.29345511745761       -1.06039904388933
C           -2.47818832068023       -2.22644882637733       -0.79767183088135
C           -3.33121562747418       -0.02012874207754        0.06850874230367
H           -3.00383985579847       -2.78477079530950       -0.02537452890870
H           -3.13824003609131       -2.12521905753762       -1.65240351197123
H           -1.58866967481780       -2.77954487794693       -1.09297300766182
O           -3.18000703261888        0.83000442510099        1.09493680548436
N           -4.38401115350654       -0.16255048596625       -0.60542908565968
H           -5.94633693617649       -0.39032075708572       -2.39605109397044
C           -5.56557514933878        0.62247573213519       -0.30167301544195
H           -5.62918757650852        0.85123614287320        0.76802808270502
C           -5.56177377708290        1.92869214227412       -1.11125219345782
C           -6.72623773254418       -0.26477758529129       -0.68144643561991
H           -4.77502541552261        2.56858749055628       -0.70657885069263
H           -5.29725440515424        1.70303515903975       -2.14924298472056
C           -6.90048706998711        2.67418933237761       -1.08389707120872
O           -6.76559007210181       -0.66742108626082       -1.96347984088161
H           -7.67616563835283        2.01856029788799       -1.49606745963127
C           -7.30304551200639        3.06131102693028        0.33649836351949
C           -6.80305997976540        3.91944847054481       -1.96392276546227
H           -6.51019218811201        3.63354290426964        0.81340565798395
H           -8.20262014888718        3.67184950602665        0.31589383298879
H           -7.50831010042843        2.17872566697617        0.93581721224608
H           -6.53105832315606        3.65492249464101       -2.98362072728593
H           -7.75638828396992        4.44125943683823       -1.98990827765260
H           -6.05003920088621        4.60041732700434       -1.57277778139879
N           -7.52824327917580       -0.65874258546725        0.20590450524919
H           -8.27721902143767       -0.45398348035806        1.84216659769813
C           -8.61731748418507       -1.56123991193009       -0.10175200753121
H           -9.12810477348271       -1.28382723388419       -1.03216288481831
C           -8.13055638846650       -3.00997111748772       -0.21796663202981
C           -9.62131282640944       -1.47669270137159        1.05695503350790
H           -7.57425766095016       -3.28572137578026        0.67567244415931
H           -8.98764284177644       -3.66914565509699       -0.32274006715035
H           -7.48318515004653       -3.11432272296863       -1.08483034504507
O           -9.17021598562015       -0.78543909704043        2.09722564869168
O          -10.69941840729549       -2.00178873936831        1.02975432779420
