42
 energy: -62.486133499515 gnorm: 0.000480572389 xtb: 6.7.1 (edcfbbe)
N           -0.79123427199169       -0.09761936840740       -1.00615081203568
H           -0.03080938880445       -0.61195834254855       -1.43373398251680
H           -0.49889618401045        0.16064076192358       -0.06780048281647
H           -2.00729393049651        1.32060181713936       -1.45996568551622
C           -2.00498980139417       -0.90924536076716       -0.94354824219914
H           -2.15455849839893       -1.33971705077289       -1.94281855601095
C           -1.95991929273176       -2.03629906515600        0.08637773792805
C           -3.16883672476332        0.05424848347701       -0.70988147434557
H           -1.93857072736719       -1.62680908150650        1.09333336529355
H           -2.83302678507054       -2.67220337064819       -0.00998900385462
H           -1.07024439179858       -2.64444821640721       -0.06798299740636
O           -2.93719695883115        1.29702402852774       -1.15339295394479
N           -4.19670545807084       -0.38292168327350       -0.13788059965042
H           -5.06368293670640       -1.96677181219217        0.10716617391204
C           -5.46086183868315        0.27623072898674        0.12189933103007
H           -5.48421435765575        0.45673246318332        1.20705163285826
C           -5.67409203169193        1.60414695579015       -0.61289365063784
C           -6.50070766672909       -0.80860544628431       -0.14559304682021
H           -4.84449032589265        2.25411875840093       -0.32933628651851
H           -5.59487776113026        1.41729281444343       -1.68554902580481
C           -6.98101491697753        2.35814926688229       -0.34042555597395
O           -6.03378825993662       -2.05867573209106       -0.00593145038424
H           -7.78266616528623        1.87574385389687       -0.90209554311204
C           -7.36009194841979        2.37339604416123        1.13715187070344
C           -6.83868446142407        3.78908569744063       -0.85975597783037
H           -6.54455768492067        2.76890037613991        1.73950692186798
H           -8.23124288498353        3.00623177117822        1.28949347456250
H           -7.60437136886670        1.37286255026483        1.48344137188137
H           -6.54878695857409        3.78942236043681       -1.90766433262799
H           -7.78179743835928        4.32194134562846       -0.76558336965429
H           -6.08162957809005        4.32866620182258       -0.29403217240423
N           -7.69225294096093       -0.54488700152115       -0.46212587049298
H           -9.15605261707816        0.57533766064284       -0.77360358592113
C           -8.63109555858080       -1.62740056049506       -0.68507423888136
H           -8.20334896042868       -2.40881835013215       -1.32479600468526
C           -9.08713044353419       -2.26510889347886        0.63396956054397
C           -9.87224064366302       -1.04133527257678       -1.36448538734914
H           -9.49959901762946       -1.50377489101932        1.29355026157828
H           -9.85098304787148       -3.00988383736374        0.42863182320378
H           -8.24198965789347       -2.74081004699574        1.12454375060053
O           -9.97691421824470        0.27529503431796       -1.22422156586665
O          -10.69074315806709       -1.71080145510536       -1.93087042142349
