42
 energy: -62.486133507494 gnorm: 0.000480069261 xtb: 6.7.1 (edcfbbe)
N           -2.21222600864701       -1.31140702234833        1.54755814927408
H           -1.59994450632652       -0.51158051948336        1.66802272555896
H           -1.65143236229409       -2.15191227431370        1.62122474851989
H           -3.94307478091232       -0.77090477751089        2.23646269964743
C           -2.90184352477377       -1.25543177225784        0.26105224382906
H           -2.27853623015914       -0.89510926681406       -0.56828101248354
C           -3.45732066898659       -2.63821553053280       -0.08708060515975
C           -4.08627332870993       -0.32322191570151        0.42511211019315
H           -4.07843263909611       -3.00783539534486        0.72585471683753
H           -4.05815199914307       -2.56924797558059       -0.98873638842318
H           -2.64474110226220       -3.34144798417734       -0.25700150297276
O           -4.57242585179050       -0.26621024813530        1.67813133898740
N           -4.53832840993616        0.29379451778209       -0.57232466150536
H           -7.76946540031487        1.11539340416062       -1.92986859244428
C           -5.75920830387257        1.06695753498124       -0.46197395207762
H           -5.82054158690562        1.54187815555995        0.52973464961256
C           -5.74957473424041        2.13874304880137       -1.55619167303638
C           -6.92655626924420        0.09235071769874       -0.53901625400073
H           -4.72844344996138        2.51914649011466       -1.61735439690069
H           -5.95459512086986        1.67068453604551       -2.52376363449426
C           -6.70573656431603        3.31371822131288       -1.29333597559723
O           -7.92695872638176        0.31434197584077       -1.41397696281994
H           -7.64602541139842        2.94229861138163       -0.86644476468402
C           -6.09593999249159        4.28992564038274       -0.28892116516552
C           -7.01944302300316        4.04146421387728       -2.60033164002624
H           -5.18582839152400        4.72767968912324       -0.69331243388732
H           -6.79452528771211        5.09358689627883       -0.06772826908437
H           -5.84982669324936        3.78784811071160        0.64342981485877
H           -7.51184130337489        3.38324378267354       -3.31425627887419
H           -7.67399866427671        4.88993110030007       -2.41557152749340
H           -6.10204112045156        4.41019440520420       -3.05376504417926
N           -6.89816837609551       -0.90236487641124        0.22901152176924
H           -6.15363694044399       -1.63050029999582        1.71125821766696
C           -7.89587463177329       -1.94051264653372        0.25218581084878
H           -8.90456979128437       -1.52776346825038        0.38806733414545
C           -7.88250873926584       -2.80096679389816       -1.01525531159661
C           -7.57210295891733       -2.83443647560855        1.46202608805377
H           -6.87323464210337       -3.16107032335275       -1.20523120750030
H           -8.54284496133794       -3.65181988297640       -0.87340907268306
H           -8.21782913551666       -2.21746304324505       -1.86836303419871
O           -6.49401173875706       -2.45924136972748        2.13620911596104
O           -8.22812789985980       -3.79654303447903        1.75508933493592
