42
 energy: -62.486133510011 gnorm: 0.000479827553 xtb: 6.7.1 (edcfbbe)
N           -1.89751770887048       -1.93540975702645       -0.93362459268334
H           -1.21162315723967       -2.63423871571819       -0.67489243104466
H           -1.40031560677148       -1.17694919624522       -1.39322972812154
H           -3.62247657984687       -1.83900649996310       -1.77241251959974
C           -2.59619129540226       -1.42541534803365        0.24687146164227
H           -2.88541151375729       -2.29263701649958        0.85444749388780
C           -1.78251921264485       -0.45951791422149        1.10348611261661
C           -3.89502775143595       -0.79018794999232       -0.23334133663760
H           -1.45878076295836        0.38994832054560        0.50454083528982
H           -2.40170583682163       -0.09053672307846        1.91357169864012
H           -0.90655317175296       -0.95888741041678        1.51317065135057
O           -4.30112170676595       -1.21262776761211       -1.44874816722376
N           -4.48149371744080        0.03374541281181        0.50727443434366
H           -5.87452031281266        0.36910743670765       -2.24750933654942
C           -5.74508482657040        0.67945306692832        0.22356082548618
H           -6.20641582891447        0.80669794596822        1.20851387239990
C           -5.46817302664189        2.06254056469316       -0.38802573880724
C           -6.71279834365657       -0.14144147328228       -0.60595723549468
H           -4.82517622579635        2.60088661267240        0.31107875349125
H           -4.89605193495576        1.94065996929254       -1.31465899951745
C           -6.72583530590471        2.89360809466364       -0.66938144324566
O           -6.67246111800175       -0.08413650463950       -1.94852376783839
H           -7.37339956608566        2.34549137937581       -1.36256435608327
C           -7.51708622151953        3.16952408602243        0.60668732817411
C           -6.32005819704642        4.21023846269806       -1.33128435166841
H           -6.87823091494904        3.62524815004918        1.35994187397032
H           -8.33774757193903        3.85095018266456        0.39528089660141
H           -7.93759532821069        2.25327319735016        1.01216528728854
H           -5.76999296115266        4.03119138038249       -2.25300395760012
H           -7.20022944733499        4.80182700495542       -1.57063194974142
H           -5.68868446431287        4.79071944192031       -0.66190555551130
N           -7.55594169615837       -0.84080906530629        0.02009231106491
H           -8.44032967432405       -1.25638545892107        1.54806640644853
C           -8.50609790641196       -1.68137245705776       -0.67418446776344
H           -8.96534982047032       -1.16407987016657       -1.52581759297102
C           -7.84725968238593       -2.97217820643730       -1.17452699300056
C           -9.60369218521092       -2.05504259547418        0.33099324925879
H           -7.36341695136968       -3.48471934406751       -0.34517268359030
H           -8.60528774602897       -3.62162397661645       -1.60274069981623
H           -7.10076495099572       -2.73567982009343       -1.92850857663236
O           -9.31074010918296       -1.71840240990919        1.58187757475371
O          -10.61703090264900       -2.61585102982356        0.01796038423676
