42
 energy: -62.486133056914 gnorm: 0.000566797023 xtb: 6.7.1 (edcfbbe)
N           -1.58934204732287       -1.85963531783051        0.96828537439856
H           -1.48135325800075       -1.49505686576120        1.90923390178757
H           -0.70452587950146       -2.26567046478882        0.68884673258763
H           -3.47006021330834       -2.31743872760293        0.95819746223397
C           -1.99087296774178       -0.80025556544365        0.04607653592643
H           -1.47968817974396        0.15750699241252        0.21327294962320
C           -1.74740577077515       -1.25027763326076       -1.39599064426630
C           -3.48412564432781       -0.58441141713212        0.23430794197173
H           -2.26746842387045       -2.18635954442067       -1.59133469543611
H           -2.10468723111506       -0.48838150254118       -2.08308201108792
H           -0.68425688927930       -1.40229849688274       -1.56923626330369
O           -4.14551525486256       -1.64513010650123        0.73064327542887
N           -3.98466004240501        0.52735621594087       -0.07575901003946
H           -4.97528495288596       -0.93577233089250       -1.64543139185085
C           -5.40381173617804        0.79981162362261       -0.01410735165521
H           -5.65451833772528        1.09821032030571        1.00909117080080
C           -5.67120607419272        1.97943825290956       -0.96961316357330
C           -6.29273829061871       -0.36387820098178       -0.38757405766957
H           -4.93821884352422        2.75112021987170       -0.73009923080183
H           -5.47227316288461        1.64381375899443       -1.99100292325590
C           -7.08365086776349        2.56590470435564       -0.90044191924228
O           -5.86579885228874       -1.18694646156169       -1.36591944695329
H           -7.80729677140690        1.76255454347921       -1.06971583815385
C           -7.37216090398064        3.19952928074473        0.45784175706302
C           -7.25209371285954        3.60794754024963       -2.00563168213913
H           -6.65331698036081        3.98882266421965        0.66858282126669
H           -8.36947541339109        3.63223690142986        0.46229153968827
H           -7.32373489916592        2.46270531162401        1.25466799476232
H           -7.08923792295841        3.16463951970619       -2.98540111860394
H           -8.25609647281623        4.02393716685688       -1.98278545573468
H           -6.54046819048275        4.42035198833342       -1.87328464647167
N           -7.45466909021830       -0.41659929675728        0.09696772595100
H           -8.84094609372980        0.40706766781305        0.93748823147539
C           -8.39446847299436       -1.43871398806550       -0.30475807203877
H           -8.36545757505996       -1.62258321341687       -1.38671407940491
C           -8.12589797778908       -2.75687675755392        0.42918835721282
C           -9.79644317889984       -0.94366127457886        0.07613439578236
H           -8.12483897309339       -2.58780561191259        1.50404035449688
H           -8.90274897455448       -3.47404657367038        0.18001649841957
H           -7.15644827180640       -3.15008735205000        0.13370644145631
O           -9.78618594855898        0.14780126154436        0.83271579001679
O          -10.80274250523771       -1.50089510823171       -0.26477885976878
