42
 energy: -62.486133511523 gnorm: 0.000479552292 xtb: 6.7.1 (edcfbbe)
N           -2.12719371187644       -0.53842313148581        1.76119223733740
H           -1.16208098810948       -0.84390152937746        1.72368222209694
H           -2.61845085304161       -1.16349259902802        2.39511185391767
H           -3.19089022164844        1.04814627420264        1.97347361524636
C           -2.74591754732932       -0.60469407641190        0.43692316785496
H           -2.06721908570293       -0.09795226969199       -0.26222639905274
C           -3.02789739805025       -2.01780032832136       -0.06700173622512
C           -4.01219214367922        0.23571404362011        0.49691284201331
H           -3.59949906452098       -2.57521242571021        0.67128423213903
H           -3.60875119424618       -1.96212654892727       -0.98091641297533
H           -2.09580323590294       -2.54468407852048       -0.26067065867560
O           -4.00637371763112        1.18859720730682        1.45117989061025
N           -4.94567630535318        0.02226579468211       -0.31561696074548
H           -8.50483726007981        1.34554393220904       -0.57348532733902
C           -6.14495673194057        0.82106793254772       -0.30351739447680
H           -6.17115410196148        1.50336216826573        0.56253106934343
C           -6.23679750006699        1.63907094014604       -1.61252614372795
C           -7.32435966413474       -0.11203970781059       -0.15285285805506
H           -5.30829475714352        1.48203285747417       -2.16405331866663
H           -7.04252069471690        1.24615601445407       -2.23850240553944
C           -6.43839507520768        3.14313494043482       -1.38795624209866
O           -8.55810164879267        0.41011077781928       -0.33982441886593
H           -7.25035129395364        3.29747746303364       -0.66398929598270
C           -5.16910982590591        3.78020209756418       -0.82742593989313
C           -6.83365315543758        3.81904020999389       -2.69968615197021
H           -4.36352982310354        3.70931980354688       -1.55506558625432
H           -5.33759708765375        4.83059758752251       -0.60147907924792
H           -4.84959259457718        3.28076891530218        0.08362910016588
H           -7.76432291366974        3.40876430339283       -3.08681387320899
H           -6.96784645499055        4.88775282417638       -2.55048525392579
H           -6.05798067408699        3.67222272303357       -3.44769341353006
N           -7.11737150746980       -1.29953724710711        0.19554581189517
H           -5.92916979652814       -2.50264208550674        0.66722824745780
C           -8.14855397356309       -2.27841023902550        0.42614418127734
H           -8.93642566093795       -1.89632045063068        1.08756457694937
C           -8.78793256751985       -2.76808293395169       -0.87724877431709
C           -7.45397593159469       -3.46959172490028        1.11090942097886
H           -8.01408754194576       -3.10310495756607       -1.56494639439790
H           -9.45613053157546       -3.59665553931102       -0.65984017365873
H           -9.35000175859746       -1.96124670565066       -1.34061489318960
O           -6.13058137139304       -3.37209815872806        1.10334286630652
O           -8.05061389191784       -4.39535764779096        1.58671848471272
