42
 energy: -62.486133509453 gnorm: 0.000479885736 xtb: 6.7.1 (edcfbbe)
N           -1.08972922878143       -0.86466581352552        0.87431441740274
H           -0.11199321202038       -1.01107203187616        0.65507013598107
H           -1.41927549897674       -1.68820583384635        1.37050093229969
H           -2.25721561588080        0.48390773163690        1.62516165359167
C           -1.87779708017404       -0.66881552784023       -0.34107630287021
H           -1.34934272576889        0.07429239246981       -0.95322223196205
C           -2.10025128398832       -1.93386848618700       -1.16821274819751
C           -3.19215548362167       -0.03033030677608        0.08429502168248
H           -2.67220590491545       -2.66158776838438       -0.59652774481219
H           -2.65256097150350       -1.69245964079662       -2.07005349614914
H           -1.14444386036656       -2.37383386111263       -1.44646170869767
O           -3.14490528965498        0.63892496403345        1.24420889370321
N           -4.20837827933771       -0.13395842704780       -0.65118367815329
H           -5.32221209609478       -1.12633265780134       -1.92341284611781
C           -5.47075273399947        0.46827695138695       -0.27302096950159
H           -5.52044628401347        0.68672039658064        0.79806667775084
C           -5.67231783847042        1.76421163537708       -1.07982736356690
C           -6.53770606717596       -0.53839976069733       -0.63657332775978
H           -4.85386287404481        2.44233281308355       -0.82752575560709
H           -5.58681513180023        1.51870272350044       -2.14190748870903
C           -7.01198780126878        2.46196941436414       -0.82652409098396
O           -6.25074514179549       -1.31522759522429       -1.68979843424512
H           -7.82020792045451        1.75182925384729       -1.02703202563133
C           -7.13591377708361        2.94481535500703        0.61609189483015
C           -7.15721328044098        3.64222672648749       -1.78612821806116
H           -6.32153294260553        3.62431216830055        0.85955702284035
H           -8.07671554385035        3.47174739366644        0.75339989733899
H           -7.11236969248600        2.11116854656789        1.31189127098054
H           -7.09499535457152        3.31153931007184       -2.82044516965278
H           -8.11807805844830        4.12935278794603       -1.64117418750865
H           -6.37138798798667        4.37422346705680       -1.61079788208421
N           -7.59979372630297       -0.59812481403640        0.03903376163130
H           -8.81185435380486        0.30035115026827        1.05133213829417
C           -8.66460049762722       -1.51587172812217       -0.30216972129345
H           -8.77072826677013       -1.64154048665501       -1.38734016318809
C           -8.43981334272819       -2.89068450865179        0.33575327108582
C           -9.96903860489923       -0.92738342481518        0.25596017345531
H           -8.28203301749252       -2.78090524696239        1.40675978434123
H           -9.31413676692470       -3.51253923902856        0.16536256007663
H           -7.56614950646536       -3.36459321627698       -0.10508146575630
O           -9.78219271443437        0.12440206716167        1.04416597934490
O          -11.05033550113265       -1.38693270866660        0.01350652544517
