42
 energy: -62.486133503442 gnorm: 0.000481696851 xtb: 6.7.1 (edcfbbe)
N           -0.77844056889468        0.00630778103585       -0.79074273260121
H           -0.01190021550841       -0.36868402377702       -1.33579917340922
H           -0.50221874646639       -0.01860484695328        0.18681529547727
H           -1.96606697687500        1.50789350342973       -0.83130639328580
C           -1.99608146677292       -0.77821712462802       -0.98560601911913
H           -2.11384241140923       -0.92949657566560       -2.06670801190478
C           -1.99555574956975       -2.13737699690246       -0.28856708255187
C           -3.16769143307626        0.09775369136999       -0.54659487707442
H           -1.95143507458648       -2.00801758641926        0.79090904631801
H           -2.90043145408187       -2.68125592008202       -0.53793726597218
H           -1.13559271488775       -2.72229423458222       -0.60951203270891
O           -2.91109156920140        1.41343060296402       -0.59021305907812
N           -4.23616293464324       -0.46159715551187       -0.19889253515015
H           -5.14916880324543       -2.10190700354043        0.38590935596433
C           -5.48153859085239        0.16833411736931        0.19090051591492
H           -5.43914936698180        0.31567481767822        1.28067481267757
C           -5.84416888484069        1.49303066813910       -0.48671767482026
C           -6.51645922723436       -0.91553911727993       -0.07116399807931
H           -4.96297881289419        2.13252267973980       -0.51086275913033
H           -6.13323333560270        1.27339398700086       -1.51583729605454
C           -6.97775882145213        2.24554725937372        0.22217610027560
O           -6.11311812744900       -2.15590798297232        0.24797007064471
H           -7.76062250197369        1.53041884701107        0.48932899449100
C           -6.47819507948029        2.92547483904279        1.49578176422800
C           -7.56866829782266        3.29188514878884       -0.72105368349171
H           -5.70380180197309        3.65223066263277        1.25833736932457
H           -7.29504630749832        3.44514490608386        1.99132305808201
H           -6.06603378184442        2.20412509034249        2.19753666262453
H           -7.97497902564906        2.82651873880110       -1.61563809649496
H           -8.36932761440367        3.83869982543040       -0.22874360354858
H           -6.80255151924916        4.00407274764703       -1.02108065898494
N           -7.62514454248644       -0.64235220473353       -0.59980996613460
H           -8.65112426919541        0.50020689675188       -1.55397857433218
C           -8.60331920254758       -1.66463005099305       -0.89172332792408
H           -8.14027529484806       -2.56966348935326       -1.30578600119920
C           -9.40612105372021       -2.04793009795086        0.35610907741529
C           -9.56955810783262       -1.07742567485921       -1.93129068648008
H           -9.84166927422990       -1.15773169537883        0.80589401073083
H          -10.20273831007401       -2.73109645886890        0.07558716933766
H           -8.75369648029849       -2.52911911461585        1.08053670487634
O           -9.40948275340415        0.22642358546376       -2.12337541191159
O          -10.39975075636115       -1.73226890065803       -2.49791404995164
