42
 energy: -62.486133511685 gnorm: 0.000479658434 xtb: 6.7.1 (edcfbbe)
N           -0.91523909018632       -0.67105439271801        0.65192128936079
H            0.04817769919989       -0.76817990664449        0.35573913898275
H           -1.14813394990332       -1.48873001197816        1.20910810304101
H           -2.09119964273049        0.65626656113969        1.43911574703761
C           -1.81351321184341       -0.57916270719204       -0.49721221358960
H           -1.38263202424940        0.15767038220093       -1.18795454956501
C           -2.03570926759434       -1.89428789253145       -1.24315837553484
C           -3.12018724771787        0.01337863009975        0.01021798668231
H           -2.50781037596452       -2.62472872907857       -0.58907081147296
H           -2.67865064447425       -1.72700240883549       -2.10090045622188
H           -1.08476893748579       -2.29461715355325       -1.58928130354589
O           -3.01491607041373        0.74220141558765        1.12899627954587
N           -4.18526585835193       -0.17427480536320       -0.63429976088914
H           -5.10346506988816       -1.63051514414724       -1.27201014474717
C           -5.45053362264570        0.37158568630854       -0.18571237743326
H           -5.43894708933893        0.60757957622441        0.88458478579440
C           -5.70364475595284        1.66095942936573       -0.99198958986177
C           -6.49384745394911       -0.69809638258967       -0.44952378939920
H           -4.88561784821192        2.34567876200740       -0.75315881977525
H           -5.62640243063236        1.40773904749975       -2.05230511848477
C           -7.03722495240600        2.36665984993804       -0.74041476777741
O           -6.05127407494048       -1.79378405620172       -1.07997517370525
H           -7.84617870581877        1.69552294288766       -1.03876126490061
C           -7.21919424210849        2.73725321099794        0.72868635696590
C           -7.10965828344480        3.62167542897721       -1.60959167593246
H           -6.40061655731441        3.37106136073177        1.06469051625639
H           -8.15128297622742        3.28043287059977        0.86396852717542
H           -7.24946446596301        1.84864085982456        1.35288429229362
H           -6.99364454285369        3.37158006289776       -2.66164226210004
H           -8.07021696247336        4.11350821380093       -1.47962996902297
H           -6.32470802379472        4.32346743613814       -1.33440549063943
N           -7.69863072368326       -0.50473657463055       -0.12837052144429
H           -9.05796586608132        0.56910176031233        0.47808635331366
C           -8.71252420578447       -1.49896316524028       -0.40748026783248
H           -8.63222610751616       -1.88179110367705       -1.43297110361738
C           -8.64054508512027       -2.68229916604637        0.56463438924875
C          -10.07895150889548       -0.82190110317879       -0.23605790535880
H           -8.67931960785488       -2.32301214821979        1.59124287502325
H           -9.48351523191601       -3.34405696807860        0.38675895390275
H           -7.71310350863595       -3.22878820224155        0.41360684214643
O          -10.01317408462368        0.37284751413275        0.33940980592679
O          -11.11046465011510       -1.33685482907371       -0.56883952882949
