42
 energy: -62.486132318382 gnorm: 0.000617464270 xtb: 6.7.1 (edcfbbe)
N           -2.07380139915311       -1.23655400753468       -2.26578616886210
H           -1.33080375933572       -1.88418405776532       -2.49745002505241
H           -1.77562642048733       -0.30951777074355       -2.55583115517449
H           -3.97924588883812       -1.03232071363318       -2.46478415350185
C           -2.35165491018992       -1.24369292609154       -0.83202295317300
H           -2.41422018913846       -2.29352511164548       -0.51780376579210
C           -1.31321390178332       -0.52349371791648        0.02523262721407
C           -3.74158937363414       -0.64982906700800       -0.64113053784112
H           -1.22137894875977        0.51331956658572       -0.29144728154014
H           -1.63033644357906       -0.53590786945359        1.06241135059947
H           -0.34343942467542       -1.00907350897601       -0.06329889617189
O           -4.51700617593170       -0.66844199049123       -1.73170654892326
N           -4.07551424115336       -0.22524582064071        0.49748080954150
H           -5.47453870793976       -1.85010122044715        1.73652293075919
C           -5.40754159910024        0.31133570269935        0.74754920797693
H           -5.43116195997347        0.52107189999212        1.82631141217359
C           -5.67315682631917        1.60086735766742       -0.03449122715648
C           -6.40867851876132       -0.78069719199669        0.45141574078104
H           -4.80877953124240        2.25574582108990        0.09887172085599
H           -5.74478756335992        1.34089757642523       -1.09034718348702
C           -6.94485505074507        2.33666899397141        0.40164038411895
O           -6.25985557264124       -1.91386267390371        1.17728121549435
H           -7.74668260232807        1.60165139744677        0.51519236203244
C           -6.74604563445094        3.06034838530932        1.73193527761794
C           -7.35479188847566        3.33797516826010       -0.67702966792523
H           -5.95454664974495        3.80226481470712        1.64543215128487
H           -7.66110750254155        3.57057477265141        2.02403879556493
H           -6.48038935673735        2.36671575345294        2.52567380366309
H           -7.55946260792482        2.83200090579111       -1.61731084616658
H           -8.25153459463920        3.87460354778715       -0.37616795108950
H           -6.56124249200993        4.06427317177666       -0.84123532277361
N           -7.27052241113033       -0.64780481242077       -0.45209681590432
H           -7.73781087889377        0.19398968082158       -1.96289429859402
C           -8.18419513652803       -1.70148138659623       -0.81955123225068
H           -7.70234930025210       -2.68755941076210       -0.81170525774832
C           -9.40255432882354       -1.73736732446692        0.10876749487158
C           -8.66511701851184       -1.39330001050791       -2.24699631423942
H           -9.86914832832766       -0.75496299279516        0.14772261608002
H          -10.12161769236835       -2.45787909893697       -0.27076376195185
H           -9.09600947862210       -2.02504250267839        1.11155640318650
O           -8.29546439971348       -0.19559056153656       -2.67991215461555
O           -9.32441263214465       -2.15889393941987       -2.89433748893772
