42
 energy: -62.486133516294 gnorm: 0.000479432856 xtb: 6.7.1 (edcfbbe)
N           -0.93051299332666       -1.00180441340116        0.52568056103824
H           -0.66509387259930       -0.23099081203713        1.12987796764325
H           -0.08415653023004       -1.39450568378677        0.13061192417124
H           -2.50192861797318       -1.70271094820757        1.31638032100457
C           -1.83567918800390       -0.54742988696575       -0.52951235728900
H           -1.58944331356934        0.44230167540275       -0.93512154784247
C           -1.85729114872215       -1.56646361135636       -1.66984378184838
C           -3.22932745604416       -0.48661366962769        0.07291802247281
H           -2.10591304338849       -2.55452477470019       -1.28726614490121
H           -2.60059930137814       -1.27416827139429       -2.40544298321857
H           -0.88384197555888       -1.61399613099940       -2.15306570892512
O           -3.39548856774603       -1.34232968924063        1.12350891614811
N           -4.07002653398707        0.30239170589609       -0.40433022018953
H           -4.98701120393131       -1.86728595815872        0.64361725217069
C           -5.45267080706650        0.49296369165063       -0.03093759561538
H           -5.48145590503687        0.77015581565155        1.03834242461925
C           -5.99386277220916        1.66146195218084       -0.86559010848470
C           -6.34228111509087       -0.73637223188704       -0.12882474319422
H           -5.14970492015766        2.31285713528412       -1.09515335520852
H           -6.37323708814395        1.26283151868994       -1.80610653567623
C           -7.08866297677215        2.47380731987434       -0.16382868229747
O           -5.87756060014676       -1.93175788644056        0.25795411532619
H           -7.78593490941550        1.77823017819126        0.31221095466586
C           -6.49688843081134        3.38731191250013        0.90842608059346
C           -7.85277705979502        3.31254678036401       -1.18670886413842
H           -5.82828893456259        4.11671171375594        0.45562686136749
H           -7.28785239553391        3.92425418682860        1.42699615270568
H           -5.93373746630098        2.82229263567977        1.64741295424734
H           -8.33055446924464        2.68232273582116       -1.93228932979599
H           -8.62374209159613        3.90105325788223       -0.69506374391092
H           -7.17495962003390        3.99467300609228       -1.69578820149433
N           -7.53196802881659       -0.57026477701329       -0.51647434946673
H           -8.73493208272894        0.41559669197428       -1.42862011642134
C           -8.46853693857551       -1.66769045776123       -0.59538542035775
H           -8.00433757510306       -2.57829672343155       -0.99486137194229
C           -9.08095521231123       -1.98411370752404        0.77361803058993
C           -9.59632612618108       -1.23117162605325       -1.54258916580870
H           -9.50828656503798       -1.08163342661815        1.20649123322996
H           -9.86421281746032       -2.72712258562718        0.65379722555075
H           -8.31481189485964       -2.37022364856155        1.44138720681487
O           -9.54194598745622        0.05419255257035       -1.86908370441459
O          -10.44939272276953       -1.97851141574850       -1.93403506892239
