42
 energy: -62.486133527156 gnorm: 0.000478203654 xtb: 6.7.1 (edcfbbe)
N           -0.86446364528223       -0.16347559753513       -1.25089933463031
H           -0.14595987635948       -0.72525753061148       -1.69031865500807
H           -0.46264575386471        0.25430907684537       -0.41632472615227
H           -2.13754658869924        1.14517174335483       -1.74053290877231
C           -2.02594427687066       -0.97524065432222       -0.89227593205165
H           -2.25089135346387       -1.61915778052787       -1.75250985719486
C           -1.82454505047763       -1.84271342037609        0.34886191781008
C           -3.21251132702069       -0.01906124278875       -0.74454030424143
H           -1.65552087598972       -1.21490970889888        1.22106101207521
H           -2.70331709466117       -2.45158183235170        0.53160086881903
H           -0.96603584175615       -2.49761771985489        0.21222021918303
O           -3.04643422084920        1.15094760418785       -1.37096136797806
N           -4.19891678703060       -0.40562546707004       -0.07023849257260
H           -5.07935676849828       -2.00774103864175       -0.04060326084141
C           -5.47754829781106        0.24202410445501        0.14469157105681
H           -5.54797221521655        0.37853443575600        1.23399619083852
C           -5.65692816211872        1.59992121602841       -0.54385069538656
C           -6.51154960609094       -0.82162371415165       -0.21192295312463
H           -4.82679667919818        2.22720673382795       -0.21178976635219
H           -5.55141697827208        1.45728154570162       -1.62047855370049
C           -6.96302676150492        2.35737677536246       -0.27826890823837
O           -6.04477182329231       -2.08029098993167       -0.19479034837818
H           -7.75455548359490        1.89858700228067       -0.87322055546661
C           -7.37546824886516        2.33304804503602        1.19035276395450
C           -6.79655248636700        3.80144817220762       -0.75207095356986
H           -6.56920065637845        2.70159371485552        1.82191186864529
H           -8.24327134266371        2.97085355646942        1.34221568503976
H           -7.63715334038464        1.32536079188871        1.50175070666899
H           -6.47974627314314        3.82943623464003       -1.79180701329769
H           -7.73753930969648        4.33937526758385       -0.66635663958299
H           -6.04996602412141        4.31797879843117       -0.15188010097334
N           -7.70890357377125       -0.53127406550747       -0.47908866842922
H           -9.17228029009492        0.61926597126550       -0.64401088507226
C           -8.65668767853027       -1.58462249610932       -0.78612681644455
H           -8.24780365624228       -2.30004856404943       -1.50975874861423
C           -9.08707401061790       -2.34797014766131        0.47373706893153
C           -9.91080526876354       -0.93000295570049       -1.37424255011674
H           -9.47507714983214       -1.65298659710377        1.21641519199886
H           -9.86411633845906       -3.06154543995970        0.21427259278128
H           -8.23602255222683       -2.87812462867953        0.89294424470437
O          -10.00436508219703        0.36699050866807       -1.10346526218041
O          -10.74550251221197       -1.53786555144058       -1.98476264909631
