42
 energy: -62.486133494047 gnorm: 0.000489083367 xtb: 6.7.1 (edcfbbe)
N           -0.77776328174184       -0.21132768534174       -0.47382226254501
H            0.00612867907117       -0.40888922328388       -1.08397274013091
H           -0.62637698796047       -0.72368492614694        0.39104507359556
H           -1.82669891305622        1.30158219481359        0.15704607487049
C           -2.03594107609776       -0.63687866581021       -1.08723668053764
H           -2.04527416828881       -0.24438873277072       -2.11258251482966
C           -2.25602561391906       -2.14674777185628       -1.12750054957710
C           -3.15771733652554        0.07559448628636       -0.34861027135913
H           -2.20291171381837       -2.56163966860385       -0.12279753798661
H           -3.24103902847908       -2.35349102587652       -1.53168762183990
H           -1.50141501156902       -2.62537360256217       -1.74817933185227
O           -2.79608394033625        1.22161866581189        0.25805159168267
N           -4.31551538389744       -0.41302331046927       -0.34766789975286
H           -5.62812665319452       -1.51347476947309        1.87647233095481
C           -5.42292324325000        0.28275189501345        0.28334404787442
H           -5.14484128939380        0.60619823356756        1.29862842164558
C           -5.82717047248702        1.50788308111643       -0.54778056577859
C           -6.52767626415846       -0.74643560299184        0.36553010141612
H           -4.96280933605403        2.17212378620693       -0.60258288125939
H           -6.05293891816600        1.15627288815096       -1.55532445154263
C           -7.02574553479886        2.28435562538343        0.00526999348956
O           -6.45268003480689       -1.62731140752992        1.38873109711881
H           -7.84742437869376        1.58291655836139        0.17673030338604
C           -6.68884457168110        2.98077642992521        1.32205846440048
C           -7.47718118844541        3.31474994138710       -1.02851345433619
H           -5.83049840418664        3.63744588341166        1.19542997164861
H           -7.53238511119578        3.58012366270760        1.65706828507479
H           -6.45981969493356        2.26123633435798        2.10416510310931
H           -7.76114234110739        2.82811342875807       -1.95829477494291
H           -8.33384584693819        3.87410229047761       -0.66011685147121
H           -6.67389367055624        4.01795638181704       -1.23845464903293
N           -7.41480976161318       -0.80543560852482       -0.52212580985485
H           -7.99172019345920       -0.31211676538806       -2.14680051050054
C           -8.44606262098058       -1.81547189684805       -0.52491660491805
H           -8.04076341873552       -2.81404060017913       -0.31840160456081
C           -9.54700822527381       -1.50864387855443        0.49647241408356
C           -9.07190020685847       -1.81107377125715       -1.92907672582282
H           -9.93682723594566       -0.50562416278662        0.33343228996703
H          -10.35424387748418       -2.22601516157089        0.37894746515154
H           -9.14681016056029       -1.57529166507695        1.50500561225110
O           -8.65964755208264       -0.80176396162700       -2.68523759285238
O           -9.86981727259181       -2.62968373270412       -2.29280965994781
