42
 energy: -62.486133512513 gnorm: 0.000480030194 xtb: 6.7.1 (edcfbbe)
N           -1.06215965298275       -0.99971396299840        0.82104267351155
H           -0.08073394126869       -1.12128196344321        0.60272879313395
H           -1.40857446941489       -1.88596329179777        1.17834662502751
H           -2.23188369830436        0.26992045575363        1.73129419572266
C           -1.82054031511442       -0.61096873747014       -0.36616607291330
H           -1.28069288041061        0.22240046824626       -0.83564563486093
C           -2.01767622837552       -1.72198824634067       -1.39627945154128
C           -3.14601980572620       -0.04755123992781        0.12480833278593
H           -2.57389005935294       -2.54903268069427       -0.95912235430767
H           -2.57214200447553       -1.33870244658172       -2.24655845702052
H           -1.05338835200587       -2.09014844425840       -1.74106161692976
O           -3.11514630204794        0.46746526209653        1.36134607411117
N           -4.15212571613187       -0.06244879833701       -0.63203491917075
H           -5.08144732862587       -1.47982869642187       -1.41650965252107
C           -5.43442750017148        0.45763601054298       -0.20155923202117
H           -5.44808712577826        0.70441263332832        0.86544243568448
C           -5.70968201988858        1.72459298059139       -1.03535176256884
C           -6.45410828697840       -0.63078242859765       -0.47365698127139
H           -4.91188000178818        2.43569990756268       -0.80641959125407
H           -5.61738994624598        1.45184388132176       -2.08949756624005
C           -7.06419890037888        2.39738886595494       -0.80516863330278
O           -6.01546298918366       -1.67275354337531       -1.19405504034526
H           -7.85412728035045        1.68392319255597       -1.05338930534702
C           -7.24036923740304        2.84161631998125        0.64422123395812
C           -7.19132694067032        3.59951110902672       -1.74027981745316
H           -6.44577337574613        3.52826011643905        0.92996070025129
H           -8.19346203206504        3.35024325513595        0.76578819382994
H           -7.22160115843775        1.98952012879297        1.31774870660403
H           -7.08498210292831        3.29523775373808       -2.77899435512186
H           -8.16454242711496        4.06840318859242       -1.61997887746969
H           -6.42432116514137        4.33904371521584       -1.51851784698528
N           -7.64218476999093       -0.49454717765853       -0.07326504992888
H           -8.99115915411521        0.53783052841002        0.60905704546510
C           -8.64722586274426       -1.49786952100787       -0.34966714240979
H           -8.60615699585693       -1.83798089492388       -1.39252925865481
C           -8.50596731224148       -2.71613123308354        0.57000768177987
C          -10.01766531262777       -0.85645455159966       -0.09103252111903
H           -8.49800418658723       -2.39714023758239        1.61052348813483
H           -9.34598101337963       -3.38598972967931        0.40900726321268
H           -7.57844210784908       -3.23922617112318        0.35133298710839
O           -9.94807767066433        0.32567513465443        0.50896132001123
O          -11.05316362884563       -1.38614674576459       -0.38594159934378
