42
 energy: -62.486133493630 gnorm: 0.000483125678 xtb: 6.7.1 (edcfbbe)
N           -0.94308399651186       -0.89074210023810        0.58405516276002
H            0.03134618659545       -0.80593853779351        0.32370900058055
H           -1.10624787963818       -1.85985431323584        0.84289182091518
H           -2.20723876105835        0.01677902173050        1.69131172841866
C           -1.82114684476407       -0.51054732861742       -0.52185880581589
H           -1.40397930452455        0.39485360443493       -0.97929467222114
C           -1.99650856253710       -1.57956628543711       -1.59858806025868
C           -3.16044817809645       -0.10554840350432        0.08002198269696
H           -2.34092100118184       -2.51209952413839       -1.15408176301069
H           -2.73815613277043       -1.24508846692539       -2.31627029130372
H           -1.05464683654256       -1.76326712420280       -2.11090120142649
O           -3.13009086463556        0.16615991664116        1.39882624888201
N           -4.17373627183441       -0.02569220943247       -0.66170830055316
H           -4.88593693806747       -1.86571149831634        0.35698981629634
C           -5.45639371042803        0.40787006269930       -0.14937767055439
H           -5.36413015099197        0.76985412820594        0.88809520154758
C           -5.99458086102197        1.53070607951792       -1.04397424705081
C           -6.38626740355034       -0.78767418412644       -0.10576864467297
H           -5.14918410873836        2.14694953478766       -1.35616331871401
H           -6.42233767614114        1.07567605328788       -1.93705507378294
C           -7.03798852938662        2.41384631546932       -0.34958332704372
O           -5.84652379341195       -1.95782930369284        0.29165913141053
H           -7.71578496566196        1.76754235090918        0.21537776577415
C           -6.37380301192418        3.39358850935480        0.61648253796209
C           -7.84648171095380        3.18403457029655       -1.39184484025471
H           -5.72943497242429        4.08190728279863        0.07290600063279
H           -7.12670322846740        3.97473649040978        1.14371516046703
H           -5.77004926147805        2.87370902080806        1.35637143884240
H           -8.37453214302876        2.50568847338829       -2.05710912409136
H           -8.57945038616464        3.82363361894136       -0.90610455845561
H           -7.18926421668249        3.81137572705491       -1.99061280831674
N           -7.59907723019764       -0.65662917130387       -0.41240143986110
H           -8.88251258605367        0.28386169701496       -1.27880537576183
C           -8.52552860385329       -1.76406557912920       -0.37252052733320
H           -8.07987610820429       -2.68648805340557       -0.76635825481894
C           -9.02958209335055       -2.02764318840050        1.05051434764758
C           -9.72673364588569       -1.37882042184624       -1.24995762136646
H           -9.44859182537119       -1.11593714580131        1.47168644234596
H           -9.79979131236162       -2.79310804456964        1.02198962779981
H           -8.20779056677912       -2.36355877956412        1.67798133836046
O           -9.71472255442870       -0.10881714201481       -1.63510301215992
O          -10.59827922038329       -2.15017153807633       -1.54020680764527
