42
 energy: -62.486132228512 gnorm: 0.000639170687 xtb: 6.7.1 (edcfbbe)
N           -0.86266836611569       -0.34613084090848        0.49429048291681
H            0.07649743910573       -0.51098743456013        0.15306365960026
H           -1.01213925473173       -0.96246646375457        1.28859044356319
H           -2.04072830701069        1.11910007628963        0.96849740983874
C           -1.85443532340085       -0.62527021372464       -0.54276766968332
H           -1.52008384312312       -0.11381788631207       -1.45550752635533
C           -2.06052890157715       -2.10876128070212       -0.84367184704031
C           -3.14573873879741        0.05298751888254       -0.11005007894590
H           -2.44780001721150       -2.61992250808562        0.03494799318044
H           -2.77347748638279       -2.22916960082096       -1.65218863112756
H           -1.11709285082778       -2.56727154766496       -1.13402573330081
O           -2.98917833787790        1.08409429779376        0.73091474443151
N           -4.25244608850055       -0.36140340440392       -0.54370587068253
H           -5.31143693200119       -1.40291776089828       -1.71638311111223
C           -5.49632899231207        0.28818331930831       -0.18344042598940
H           -5.54890284702139        0.48094501637058        0.89235398195906
C           -5.64059238982646        1.62040598307059       -0.94681809666661
C           -6.59668238854068       -0.66530113740383       -0.59447566314580
H           -4.80165845418076        2.25617267306818       -0.65674102178052
H           -5.54863229609806        1.40733260184026       -2.01575087610560
C           -6.95248248980247        2.36749679295863       -0.69293317816054
O           -6.27269759271893       -1.51707146620234       -1.57410929197333
H           -7.78718253293735        1.71317318879201       -0.96109586728880
C           -7.10094099902549        2.77323129407447        0.77082892196689
C           -7.00565757689813        3.60662976921006       -1.58574774302053
H           -6.26109885564822        3.39279613597907        1.07911107099295
H           -8.01747756719763        3.34118237580697        0.90902549647600
H           -7.14457824083124        1.90066195938557        1.41631997119120
H           -6.92477857988379        3.33254223881945       -2.63522360559938
H           -7.94549587490785        4.13363936486338       -1.44255435475210
H           -6.19069760626988        4.28587605384791       -1.34345403656777
N           -7.71767913328827       -0.61763288796448       -0.01864673049992
H           -8.95760130118059        0.39031814628316        0.85315049094075
C           -8.80409362011483       -1.48814824534750       -0.41275786413689
H           -8.82492399871051       -1.65863155106785       -1.49676194707878
C           -8.71780601472196       -2.84227267918573        0.29941800529242
C          -10.11343257838828       -0.80340070967509        0.00482911413088
H           -8.65315107722975       -2.69166667264245        1.37515441668104
H           -9.60665327495540       -3.42442964232491        0.07313103078001
H           -7.83547526092847       -3.38106864434872       -0.03706880562485
O           -9.93240677926140        0.26895951370404        0.76661980000677
O          -11.19582592874827       -1.21001160299725       -0.31543206549438
