42
 energy: -62.486133516737 gnorm: 0.000479357355 xtb: 6.7.1 (edcfbbe)
N           -0.99155724706472       -0.68301804128824        0.76397441659096
H           -0.02160469502604       -0.80526766249894        0.50003037065794
H           -1.25040674824819       -1.46974515509905        1.35311918362491
H           -2.17689696330844        0.67030191313788        1.46482946611702
C           -1.85569126078464       -0.63899326743547       -0.41422046018752
H           -1.39362256326610        0.05378121854531       -1.13003289927293
C           -2.07582395563271       -1.99023009868121       -1.09249385162361
C           -3.16786200405685       -0.00429310458978        0.02393864618002
H           -2.58468742965247       -2.67267446970004       -0.41496516604762
H           -2.68810661981944       -1.86392527777712       -1.97893359301757
H           -1.12111214921835       -2.42520838580273       -1.38211952829825
O           -3.08819291686037        0.76129285352402        1.12011963172924
N           -4.21502285273602       -0.19670290489827       -0.64799482237787
H           -5.29101754498193       -1.26630931090256       -1.82217538825254
C           -5.47468713920967        0.40268557051978       -0.25711664139945
H           -5.51331722301112        0.61296737592664        0.81634643338938
C           -5.67607587345758        1.71026197424850       -1.04611695341328
C           -6.54715794499734       -0.59987442800788       -0.61943615246689
H           -4.84697125724664        2.37540455970779       -0.79373354045336
H           -5.60456433276798        1.47605633415919       -2.11174773585627
C           -7.00306898030457        2.42306277578237       -0.77204771063843
O           -6.23137801092727       -1.43612526706495       -1.61633048560317
H           -7.82303391077985        1.73169241749262       -0.98814754493162
C           -7.11622297276730        2.87401116065330        0.68170589041181
C           -7.12934265455524        3.62783308680317       -1.70354846984007
H           -6.29174849614259        3.53623091896055        0.93854035510000
H           -8.04925001760544        3.41071117916064        0.83375991718532
H           -7.10233180541604        2.02419159590124        1.35803202685670
H           -7.07920453843650        3.31956723672168       -2.74539295079159
H           -8.07927638419607        4.13085731448809       -1.54199348028595
H           -6.32774884343842        4.33955853801879       -1.51615375013087
N           -7.64466205153884       -0.59552542885461        0.00090758310085
H           -8.88378276990445        0.37163071351836        0.91692976244556
C           -8.71291915068385       -1.50656906628073       -0.34777104943688
H           -8.77058086655641       -1.68146556354533       -1.42980049311381
C           -8.54962214269997       -2.85399950299373        0.36339415282606
C          -10.02864684696222       -0.86681305603008        0.11921188451959
H           -8.44603852338276       -2.69697010380685        1.43516967856959
H           -9.42585145029126       -3.46802658409237        0.17544891739718
H           -7.66353599256146       -3.36289934979546       -0.00815632192315
O           -9.85626557005576        0.21493045288430        0.86945435731627
O          -11.10730055962397       -1.31441900861847       -0.15554869970532
