42
 energy: -62.486133507137 gnorm: 0.000480436537 xtb: 6.7.1 (edcfbbe)
N           -1.25119375043734       -1.01169152225920       -1.56875368934051
H           -0.43117587276604       -1.60422305741168       -1.65114275522812
H           -0.92876760628804       -0.06396069910254       -1.38343376745936
H           -2.88385493296822       -0.74643649268635       -2.51995243962500
C           -2.12556044555035       -1.45855307932037       -0.48150622116513
H           -2.26776913682996       -2.54150608573218       -0.60802119925814
C           -1.60731075633133       -1.17595713115195        0.92562253608318
C           -3.48408303111563       -0.81377517427381       -0.72315043186727
H           -1.49766186221825       -0.10274337109741        1.07751946487121
H           -2.31846840836930       -1.55107483995385        1.65524275210652
H           -0.64454476269980       -1.65940136745887        1.07814533437503
O           -3.72792349936361       -0.57994473375830       -2.04824684285222
N           -4.23180099970132       -0.55471219957871        0.24147735359397
H           -5.41187356292130       -1.04911005148888       -2.00628664478551
C           -5.53941485658958        0.05323986514726        0.24049734251718
H           -5.86459353218867        0.03807048854223        1.28373061065766
C           -5.40933429025647        1.52062318463666       -0.23996614409380
C           -6.62141565619949       -0.62031252283826       -0.57957253376220
H           -4.58069703732542        1.96946455896415        0.31351624763918
H           -5.13297428374069        1.50449905484941       -1.29810936645760
C           -6.66128809940006        2.38319020468725       -0.05944922888118
O           -6.33030945926826       -1.22398061944801       -1.73628972988662
H           -7.50939890693566        1.87927659804695       -0.53261221581954
C           -6.98672799604850        2.60232467586704        1.41507621884539
C           -6.45497462099152        3.72739423318602       -0.75780959156892
H           -6.15378357978424        3.08837258405869        1.91970444548245
H           -7.86585290249159        3.23464469634895        1.51292791895580
H           -7.19361028785163        1.66015897348749        1.91365101339136
H           -6.24697094872406        3.58510137043715       -1.81684237917280
H           -7.34928110923531        4.34000233906756       -0.66646352080873
H           -5.62073107800894        4.26774637190588       -0.31148091529420
N           -7.80446043128899       -0.50494754334870       -0.14762671525903
H           -9.02327388445368        0.35323396036695        0.90590762957962
C           -8.92596082861677       -1.01864946867194       -0.90289928614270
H           -8.81369413844315       -0.82653785089243       -1.97853600816321
C           -9.11238902295512       -2.52426849079092       -0.69083393558379
C          -10.18420855698361       -0.29583098345268       -0.40333676971735
H           -9.17093162744249       -2.74539212410836        0.37310631073078
H          -10.03215125187273       -2.84287572933264       -1.17376496527796
H           -8.27127018235571       -3.06347813475024       -1.11967690863949
O           -9.98307093080103        0.42748105553690        0.69387423291892
O          -11.25142408325451       -0.38815118162183       -0.94546472981571
