42
 energy: -62.486133511792 gnorm: 0.000480032915 xtb: 6.7.1 (edcfbbe)
N           -2.54753320199564       -1.31676694319351        1.88172623458051
H           -1.60622348408428       -1.68712256981263        1.93857893453684
H           -3.18454785193013       -2.06948665996458        2.13246940979509
H           -3.61871934145697        0.19510528905764        2.41486708431799
C           -2.84540228808180       -0.86193689327405        0.52373443520503
H           -2.02932282183853       -0.19171749414637        0.22018936657857
C           -2.99254727937821       -1.97846956553018       -0.50719704411253
C           -4.09989056168679       -0.00780636676133        0.61496182756013
H           -3.69741733590386       -2.72618577817310       -0.15119129050527
H           -3.37014623888786       -1.56251975395124       -1.43471238605613
H           -2.03224488488047       -2.45750148980667       -0.68720946596655
O           -4.30408706744463        0.55928171089014        1.81886776543532
N           -4.84902273925725        0.12168951069218       -0.38594385650355
H           -8.39987587104336        1.40750123884955       -0.78933296335222
C           -6.04488266878669        0.92541758449343       -0.31634851212401
H           -6.07614769919582        1.52539332578719        0.60775248789942
C           -6.10517196658084        1.85091015904087       -1.54877798146006
C           -7.22881936623718       -0.01709372863326       -0.25496717184860
H           -5.12108685367431        1.82777087820382       -2.01933692272355
H           -6.80975979655326        1.44722363367079       -2.28102452045991
C           -6.46564591385541        3.30479693286411       -1.21454770635646
O           -8.45178292235692        0.47508696379299       -0.54277311679371
H           -7.31880517600717        3.32277792568672       -0.52226926365965
C           -5.29014818500602        4.00684618931381       -0.53839218173451
C           -6.86485949540610        4.05231977531566       -2.48560555507705
H           -4.44754022858482        4.06796667931933       -1.22355067366819
H           -5.56680107211758        5.01592388181571       -0.24165752130367
H           -4.96877495334060        3.46557502111028        0.34808197488321
H           -7.73766474979589        3.59788695536667       -2.95056339436053
H           -7.10059541428924        5.08932275930958       -2.25860341034786
H           -6.04803196678645        4.03587900300325       -3.20332981191254
N           -7.02059777994558       -1.19835952272494        0.11602695366363
H           -5.83786827824252       -2.30267583454314        0.71009171360412
C           -8.02314244010581       -2.21848234643017        0.27714519190117
H           -8.85172284280301       -1.87930840987865        0.91202807351049
C           -8.58794050263826       -2.70571208109999       -1.06032494973327
C           -7.31212090385120       -3.39222653624436        0.97827528950151
H           -7.77296603726963       -2.98555778648560       -1.72482257039666
H           -9.22133235002037       -3.57123071807871       -0.88750056674954
H           -9.17126742320434       -1.91619545242877       -1.52705151705899
O           -6.00290054878118       -3.20331799060159        1.10201785512496
O           -7.88083280167798       -4.37702748283186        1.35915522312216
