42
 energy: -62.486133495982 gnorm: 0.000482920194 xtb: 6.7.1 (edcfbbe)
N           -0.71434188782824       -0.09048167668092       -0.10978846200548
H            0.14634117585338       -0.33675217439478       -0.58341346171465
H           -0.67170594465271       -0.48221583852100        0.82700601865922
H           -1.84643835412213        1.47060733956230        0.13958601789317
C           -1.87527334694635       -0.62341399809078       -0.82015637869808
H           -1.75913638162211       -0.34694721797764       -1.87711519217614
C           -2.05096381002292       -2.13738066997501       -0.71611193159463
C           -3.09106960434382        0.13968400607969       -0.30972666391096
H           -2.24882912871836       -2.42562274233248        0.31409463075392
H           -2.88293207361703       -2.45919566197431       -1.33378413019885
H           -1.14853258426819       -2.64152650514043       -1.05675765010649
O           -2.82002115673898        1.37132001084771        0.14448809565949
N           -4.22062345696383       -0.41054699909631       -0.33657820070838
H           -5.09034080033167       -1.96778095484149       -0.47752393758732
C           -5.47003326057335        0.22485921066370        0.03564285501822
H           -5.47159801064824        0.44771170880669        1.11004691428167
C           -5.66081774807026        1.53346652125230       -0.75455984277654
C           -6.53888050705237       -0.82645935908091       -0.24084218544397
H           -4.83541039288101        2.19028184634971       -0.47457037160573
H           -5.55309509936374        1.29372559448986       -1.81572993856932
C           -6.97153930594357        2.29791403108944       -0.55383266195306
O           -6.06836774207966       -2.06204636183972       -0.45060086022559
H           -7.77648933949788        1.73788536975987       -1.03270699128154
C           -7.30724870525830        2.49193273170186        0.92161694363210
C           -6.85986994262386        3.65498787976621       -1.24876424826312
H           -6.48852757772983        2.99259550552513        1.43513626775503
H           -8.19976396336845        3.10470701039756        1.02381443841498
H           -7.49234547014057        1.53620649197579        1.40451687993334
H           -6.60672732991152        3.53018134486571       -2.29904599892700
H           -7.80467964563361        4.18898364643175       -1.18671698141807
H           -6.08939581788109        4.26372738725084       -0.77943251755849
N           -7.76266023852110       -0.52420160386878       -0.29877998227160
H           -9.20422069850171        0.63263249233171       -0.07271069943139
C           -8.75639521806215       -1.54052303655498       -0.57800287692336
H           -8.49040389310482       -2.13064444397283       -1.46368194930626
C           -8.95905285066073       -2.49517100031014        0.60614510841578
C          -10.08991159432107       -0.82778204031283       -0.82908923732314
H           -9.19509450652984       -1.92846073692897        1.50518065710249
H           -9.78021436253684       -3.17163242524023        0.38622464890700
H           -8.05273806664275       -3.07039060783643        0.77571617141970
O          -10.11061216542760        0.42747635276963       -0.39432021215706
O          -11.03623045344857       -1.36373631328846       -1.33593708155016
