42
 energy: -62.486133511374 gnorm: 0.000479429174 xtb: 6.7.1 (edcfbbe)
N           -2.16089625341847       -1.62942252147796        1.42821181569855
H           -1.25139834290828       -1.26464948903838        1.67656021026389
H           -2.11977515279126       -2.64043757477380        1.45770231593973
H           -3.68702079379700       -0.84794822456568        2.11940308146496
C           -2.61488244679967       -1.15286331900106        0.11974660858054
H           -1.86389198710211       -0.51506358400763       -0.35862085415276
C           -2.96307660728359       -2.30120868906618       -0.82569762150172
C           -3.86482321593783       -0.30556541747098        0.35013820913584
H           -3.71665270723671       -2.94215339250476       -0.37251944302856
H           -3.36313321706894       -1.89670813683705       -1.74948985280785
H           -2.07875474656767       -2.89515041829767       -1.04906654134365
O           -4.33000906089281       -0.30815902321500        1.60218151921107
N           -4.37574442193409        0.30448701169906       -0.62669103758404
H           -6.60417351673206        0.37980982950127       -2.54595300903733
C           -5.59848615536771        1.07000862853331       -0.42909451184981
H           -5.67944453033557        1.40692538079289        0.61063222162021
C           -5.60257286998270        2.26130461942661       -1.38840942864892
C           -6.70191142458687        0.06310264692871       -0.66609092253864
H           -4.80483106714359        2.93696002182010       -1.07353432015998
H           -5.33405212470692        1.91572674204415       -2.39178530784484
C           -6.92864620418538        3.03168951204745       -1.43098002539540
O           -7.09580964023984       -0.17946626302483       -1.93084455060721
H           -7.73787871755288        2.35037814894262       -1.71774532589726
C           -7.27372689920909        3.62736558566269       -0.06788098195246
C           -6.83929086501343        4.13892287540578       -2.48066078814931
H           -6.46297589914746        4.25981103306138        0.28710059256800
H           -8.17350821982470        4.23376564688156       -0.14204016025976
H           -7.45341309669061        2.84597623596103        0.66544605955941
H           -6.60831043498214        3.72978570344403       -3.46223460543839
H           -7.78241568009710        4.67553400376608       -2.54871132256963
H           -6.05970040894009        4.84931665655715       -2.21401840488110
N           -7.10977401948257       -0.58955886320590        0.32951654893255
H           -6.99515207302753       -0.91411236050078        2.10357878921254
C           -8.04867076455734       -1.68134815089225        0.24195871022210
H           -8.96529270245713       -1.38937679501879       -0.28497746390047
C           -7.44833411750956       -2.91215090476071       -0.44812645666079
C           -8.40070156914687       -2.07236031784582        1.68678205706884
H           -6.51723958810837       -3.19037145368815        0.04249861812176
H           -8.14825172987624       -3.73991545750021       -0.37754928246075
H           -7.24691657871734       -2.69399608014219       -1.49347683786433
O           -7.60853031560253       -1.51562763066549        2.59269354218796
O           -9.28612108210462       -2.83528201733600        1.96098330278858
