42
 energy: -62.486133510073 gnorm: 0.000480166790 xtb: 6.7.1 (edcfbbe)
N           -2.05529412704899       -2.14959032351885        1.10687358485411
H           -2.14278359349550       -1.97768598153726        2.10311389037172
H           -1.14145502544499       -2.55413116281467        0.93873279359650
H           -3.91111348911963       -2.45177101399861        0.64217297425294
C           -2.22176552972162       -0.90968927747205        0.35211376034967
H           -1.71684785634872       -0.04208336888725        0.79904719715375
C           -1.71033086174974       -1.10163331211618       -1.07686260410354
C           -3.71339474067923       -0.61774329082815        0.29481963503551
H           -2.22187683889870       -1.93791207011581       -1.54955464249024
H           -1.89050238176094       -0.19823414753339       -1.65231566325884
H           -0.64160539457927       -1.30530542764935       -1.07186661556257
O           -4.49991820896825       -1.69747893254754        0.43318993050332
N           -4.09242401709377        0.56448140852373        0.10284340047470
H           -5.33379129779305       -0.31258882149427       -2.04954959979947
C           -5.48144942893043        0.95646852569183       -0.00849360860721
H           -5.81321022948498        1.26413129567792        0.98871446936387
C           -5.54368155234430        2.16201822876147       -0.96181931361834
C           -6.40446141928897       -0.14341471445230       -0.47749307305029
H           -4.92546587058275        2.95075755819870       -0.53160968836335
H           -5.08755551032384        1.88240845714555       -1.91633270234638
C           -6.96006806477605        2.68765888702822       -1.21751302812792
O           -6.13902164761931       -0.69601521650794       -1.67948358597053
H           -7.56691120951790        1.87854618449822       -1.63966042234451
C           -7.62701071235416        3.16570301069638        0.06938504355527
C           -6.90035875038230        3.82674317940456       -2.23433741712424
H           -6.99896676527903        3.89728115059387        0.57359402806281
H           -8.58289687914704        3.63208008524942       -0.15710552530495
H           -7.81092025910808        2.33407918813374        0.74376365825583
H           -6.43808345743730        3.49667142565872       -3.16223275489770
H           -7.90107694114614        4.18564972695790       -2.46134682183186
H           -6.31968533354281        4.65681348951634       -1.83763449309542
N           -7.39062283388991       -0.46799371320546        0.23477932309970
H           -8.52654875402667       -0.13257278219421        1.60480111469934
C           -8.31876190632662       -1.49640298769655       -0.18085811340147
H           -8.56721787331701       -1.41938931867938       -1.24685173901048
C           -7.76061653471501       -2.89609785936463        0.09932319954281
C           -9.59810505730798       -1.31383298683113        0.64619510046053
H           -7.49044984121041       -2.98219785344157        1.14967859801963
H           -8.51459601538747       -3.64036842709664       -0.14060675054912
H           -6.87358766636577       -3.06337027099260       -0.50566079069599
O           -9.44832687966269       -0.47698676801498        1.66719768816063
O          -10.62343048577335       -1.88902765698871        0.40778486060678
