42
 energy: -62.486133508529 gnorm: 0.000480215671 xtb: 6.7.1 (edcfbbe)
N           -0.82697577336994       -0.31228883983004        0.43001101871926
H            0.11110202876982       -0.44488461223549        0.07221760644616
H           -0.95801625030734       -0.96739511716757        1.19588811576757
H           -2.01805199550154        1.13961190857052        0.95368307358117
C           -1.82496134930777       -0.55639620862367       -0.60971253667956
H           -1.51201863899607        0.01136896758083       -1.49646499144842
C           -2.00545217720662       -2.02432055525016       -0.99255310406578
C           -3.12214686976223        0.07323992860643       -0.12602918826904
H           -2.38116445429876       -2.59249760429989       -0.14427259998486
H           -2.71470446626647       -2.11012010935596       -1.80902252252866
H           -1.05409111403729       -2.44828494303152       -1.30833683866663
O           -2.96968290914144        1.08995172624636        0.73314094671741
N           -4.22937524335815       -0.35811871633025       -0.54138792318349
H           -5.17542833884734       -1.77013823658271       -1.17912531702913
C           -5.48096207320293        0.24366814343584       -0.12560248997443
H           -5.48135172956097        0.46399848128436        0.94759424835058
C           -5.67189948268720        1.55771349655273       -0.91159602138465
C           -6.56180526686134       -0.77523730531789       -0.43893323938438
H           -4.83006193545710        2.20377093623272       -0.65149966380984
H           -5.59575804321180        1.31942170075674       -1.97597586546103
C           -6.97587506177479        2.31697441065338       -0.66148444061906
O           -6.14323671722413       -1.88373554474871       -1.05896016364239
H           -7.81087199919902        1.68725651513115       -0.97738799667227
C           -7.15363361113060        2.67312508250605        0.81152006694817
C           -6.98408962906489        3.58668337599396       -1.51217022492945
H           -6.30668662444916        3.25814944667296        1.16496101332464
H           -8.05807566550520        3.26079205055047        0.94742371479295
H           -7.23609493012275        1.77741279081413        1.42085081439790
H           -6.86748607821192        3.34712498120448       -2.56665835253806
H           -7.92401899169700        4.11764333912132       -1.38497810899578
H           -6.17263100560736        4.24965805993962       -1.21817860401364
N           -7.76728663857741       -0.52653869877390       -0.15908593472032
H           -9.06669453896162        0.57277773515633        0.50349707098909
C           -8.82289828384946       -1.46426573153131       -0.47689962798955
H           -8.77381497126643       -1.78301892916971       -1.52605497672505
C           -8.78742082342118       -2.71070209897737        0.41515190985910
C          -10.15846203418474       -0.74476596858656       -0.24140809570298
H           -8.78781943636647       -2.41764725793694        1.46338789340298
H           -9.66548763922735       -3.31837192593024        0.21521453476279
H           -7.89126033323554       -3.28948619111930        0.20744391223839
O          -10.03279439688686        0.42109453167228        0.38110537902307
O          -11.21674576759797       -1.20524888308177       -0.57037749801878
