42
 energy: -62.486133496081 gnorm: 0.000480663049 xtb: 6.7.1 (edcfbbe)
N           -2.12645796801745       -1.32477014324452        1.46383609775663
H           -1.56033646203563       -0.49884350456255        1.62658662536885
H           -1.51868111127031       -2.13442424795278        1.49855836189524
H           -3.89632194012594       -0.86599400655006        2.15752492791232
C           -2.81024125648592       -1.24117326188006        0.17555556191615
H           -2.18986244558276       -0.84397266663254       -0.63953886849898
C           -3.33857433123145       -2.62297049973741       -0.21573918661070
C           -4.01099768964545       -0.33504005360047        0.36482097678021
H           -3.97220839498544       -3.01796503815941        0.57588035873364
H           -3.91933119243888       -2.54471230554672       -1.13014177516870
H           -2.51316515010226       -3.31228996334456       -0.38089224132509
O           -4.51820725352121       -0.34383968348040        1.60866267537131
N           -4.45483190982828        0.32603545849481       -0.60851889410982
H           -7.25086365150549        0.76169609869643       -2.36707490093231
C           -5.68736289973691        1.08446915887995       -0.46966329120469
H           -5.76722027882442        1.48902584445537        0.54868836118410
C           -5.67475038883991        2.22059487463456       -1.49233828567663
C           -6.82022959446284        0.08206616088141       -0.62647290903256
H           -4.73826796880554        2.76467176257652       -1.35468870471061
H           -5.63025500761698        1.79874519761633       -2.50166193601923
C           -6.84972067358652        3.20078823256818       -1.35822299411287
O           -7.55095949413055        0.07460211807376       -1.75804878067809
H           -7.78412494752919        2.64214325594526       -1.22755840078999
C           -6.67178767546837        4.10660684584344       -0.14136369992660
C           -6.96543583350124        4.04975591843982       -2.62396276594890
H           -5.75880613465386        4.69090616998505       -0.23468380129167
H           -7.51091254606856        4.79316257685535       -0.05650842140868
H           -6.61745387107255        3.52563008394221        0.77550865019538
H           -7.14644169031575        3.43060797187314       -3.50071324771751
H           -7.78651190093839        4.75678506940771       -2.53350044132119
H           -6.04751958686552        4.61073009392372       -2.78566705776190
N           -6.97791995670695       -0.74578129558495        0.30635861986337
H           -6.32580501265909       -1.36822917213407        1.88418502437571
C           -7.92361789691496       -1.83218722925790        0.29746452056568
H           -8.95350201100690       -1.45323286567611        0.27282285263659
C           -7.73199750928758       -2.81617621259397       -0.86170271304681
C           -7.72426580025597       -2.59415598809548        1.62102033558460
H           -6.69460820164358       -3.14374481204727       -0.90062342265048
H           -8.37094919787960       -3.67979849012071       -0.69921397410526
H           -7.99061490187682       -2.34528808814580       -1.80582276642167
O           -6.71493467108761       -2.14979327116915        2.35427815641891
O           -8.41013483294950       -3.52666590829765        1.94150652214231
