42
 energy: -62.486123720946 gnorm: 0.000703981829 xtb: 6.7.1 (edcfbbe)
N           -1.70194071171890       -1.82502706554699        1.03835968992910
H           -1.53882305546702       -1.33533495762948        1.91215925666738
H           -0.85263602678218       -2.32107843110737        0.79703581716169
H           -3.62055665350092       -2.13549911880211        1.16327637066688
C           -2.07361209153929       -0.88585317726655       -0.01715213297262
H           -1.48412059365180        0.04157398648522       -0.02004849512807
C           -1.94232485928744       -1.56450444532009       -1.38243286012931
C           -3.53307217790194       -0.52607836155138        0.20057584878940
H           -2.56070993189534       -2.45939617876087       -1.41901468545832
H           -2.25485984537088       -0.87843513828058       -2.16440831008884
H           -0.90821457751992       -1.84940058214797       -1.56408883172087
O           -4.24762581886527       -1.44141406114329        0.87334702511968
N           -3.98004041697812        0.55571477512116       -0.26419549921735
H           -5.07847188538442       -0.73894161371968       -1.86001664245429
C           -5.38470377063348        0.89512459639598       -0.13697599532562
H           -5.58932179086506        1.19535916175747        0.89561946844461
C           -5.66305958968463        2.07101767182096       -1.08804071895907
C           -6.29106149766406       -0.26726122347181       -0.46809284649279
H           -4.93833172362793        2.85266068488534       -0.85565581913695
H           -5.46759232538412        1.73839797671231       -2.11115110817962
C           -7.08399382791614        2.63663519858107       -1.00617163230140
O           -5.92464654116019       -1.04631954588635       -1.50621553223067
H           -7.79706476084686        1.82141207657277       -1.16643442507376
C           -7.36810803589915        3.26648079354016        0.35479789489637
C           -7.27917018976115        3.67525437326375       -2.11004989467301
H           -6.65615389442599        4.06353528879821        0.55933044332913
H           -8.36988056832097        3.68845976524346        0.36812027691631
H           -7.30491191608409        2.52946220895495        1.15027572286446
H           -7.11129860369293        3.23609157905311       -3.09091304499233
H           -8.29109260121951        4.07145749816760       -2.08278062626440
H           -6.58322782362582        4.50147025795374       -1.97990835748357
N           -7.37072981117709       -0.40903719217311        0.16295345715468
H           -8.68905016438969        0.33236546426306        1.16398221536228
C           -8.30223714857481       -1.46710629020802       -0.15688360801981
H           -8.38444025527638       -1.63298403633350       -1.23892882242487
C           -7.89552521548193       -2.78177816989913        0.51733726214661
C           -9.67465551091600       -1.04508353596555        0.38642517385254
H           -7.77461677252923       -2.62603931249163        1.58731134273022
H           -8.66688459871829       -3.52764548641520        0.34772859639753
H           -6.95246847944946       -3.13010701315977        0.10403979402694
O           -9.62882200126792        0.03396567823397        1.15877217608422
O          -10.68613318876535       -1.64413990916124        0.14704724373351
