42
 energy: -62.486134071305 gnorm: 0.000282209360 xtb: 6.7.1 (edcfbbe)
N           -2.06493167375581       -1.85377116285038        1.25498612911345
H           -1.79336255975830       -1.24602293041880        2.02071125364670
H           -1.29242513867774       -2.48130895389404        1.06539054296782
H           -3.99417405322421       -1.94120751223601        1.48044977790131
C           -2.40291673807366       -1.07128559672739        0.06880529787976
H           -1.72116945684683       -0.23161971947246       -0.12403586033003
C           -2.43413590938067       -1.98419939375259       -1.15792650698986
C           -3.80219832721189       -0.51654980184334        0.28336889993446
H           -3.13228756999408       -2.80285498943290       -0.99702229651069
H           -2.74737231725748       -1.41633018751727       -2.02868155543400
H           -1.44622769382872       -2.39909364378485       -1.34671526211895
O           -4.56838628774515       -1.23939622005456        1.10908806026475
N           -4.13336119732554        0.53815896460596       -0.31638814391165
H           -5.88536148452887        0.03708981576787       -2.35845409680741
C           -5.47370065861760        1.09408732246678       -0.23870218668750
H           -5.66285809821762        1.42773222343352        0.78854473707294
C           -5.54805960383110        2.28443538996946       -1.20248988442280
C           -6.49923100343113        0.02926134596321       -0.54850208434560
H           -4.88040837849243        3.05839897671269       -0.82139560854390
H           -5.15052010348738        1.98111211019277       -2.17578832727926
C           -6.95800631701699        2.85942317225303       -1.37912281508495
O           -6.53082077654121       -0.43521056478596       -1.81693495515050
H           -7.61738544950895        2.07665845647718       -1.77189082633798
C           -7.53701390123545        3.34829814968290       -0.05376476037095
C           -6.91551520868970        4.00372126571237       -2.39085945823542
H           -6.86540541767476        4.06579139292824        0.41273715841470
H           -8.49482422593897        3.83506554743302       -0.22201445608366
H           -7.69613463056223        2.51926133240705        0.63049172552907
H           -6.51877666731921        3.66498703254973       -3.34567018142297
H           -7.91353532259664        4.40112358405320       -2.55811006359425
H           -6.28306018128740        4.80882504560462       -2.02316281447073
N           -7.22015561056143       -0.42644059354981        0.37511491592426
H           -7.72415154509647       -0.43608404917834        2.10802014027888
C           -8.17107985260119       -1.49354119671096        0.16355602936218
H           -8.83267279508752       -1.28304157342910       -0.68600290346695
C           -7.48378419901547       -2.84476261562322       -0.06467182005777
C           -9.01679139563111       -1.59728515997058        1.44174030715529
H           -6.77652536480117       -3.03424289639152        0.74010697076530
H           -8.23351714597382       -3.63089876429285       -0.07848274440405
H           -6.95086015780884       -2.83466514101221       -1.01187050475070
O           -8.52170100739481       -0.90121736596168        2.45700261222094
O          -10.01138581404401       -2.26442691547186        1.51748069504527
