42
 energy: -62.486133493344 gnorm: 0.000482038174 xtb: 6.7.1 (edcfbbe)
N           -1.04136341214748       -0.24003042351871       -1.54819541216495
H           -0.32464952659457       -0.82917697097695       -1.95433367177996
H           -0.59966167965516        0.33567039129195       -0.83653490224358
H           -2.47444562355032        0.89215738357998       -2.12004013738885
C           -2.10550276811007       -1.04210251738880       -0.94829149857274
H           -2.38440784319777       -1.80990569360118       -1.68229185065517
C           -1.72201264807618       -1.71943862050939        0.36574479516509
C           -3.32265491643383       -0.12962751222558       -0.79813537623260
H           -1.48837769487337       -0.97104667892365        1.11995717603215
H           -2.54572629397085       -2.32501035149919        0.72773571935576
H           -0.85339509968316       -2.35854238984174        0.21854869098378
O           -3.32500070173863        0.91569456979832       -1.63468227378717
N           -4.19268859792054       -0.43397928445020        0.05499879260568
H           -5.16009099206702       -2.04258772542568        0.71635196352694
C           -5.46466050533838        0.21620506278823        0.30102935307235
H           -5.47150259222350        0.41424702337582        1.38439338878686
C           -5.79515229557734        1.50828655241544       -0.44797373796662
C           -6.48476261193625       -0.88618391765148        0.06347332677660
H           -4.91242309959714        2.14784920445741       -0.45162460228030
H           -6.02994179270568        1.25604186924892       -1.48237342305321
C           -6.96183570597331        2.28401909349360        0.17891607453785
O           -6.10359768197357       -2.10506560265007        0.48329197197373
H           -7.73912111263542        1.57247222532176        0.47023623170720
C           -6.51049838964697        3.05241490581340        1.42007796504766
C           -7.54519420904108        3.25752442831538       -0.84356798827426
H           -5.76226526935332        3.79647481593459        1.15348524615891
H           -7.35482883667908        3.56600578996603        1.87409990639792
H           -6.08135448692924        2.38784650078528        2.16631645887492
H           -7.91968941525755        2.72935201912742       -1.71681102806116
H           -8.36752230572744        3.81975909841688       -0.40739846505090
H           -6.78341408706174        3.96296189500314       -1.16937496850806
N           -7.58101836687191       -0.64427129563671       -0.50368075530993
H           -8.58323101406481        0.44039799427166       -1.54929476822508
C           -8.55320952147287       -1.68223426164965       -0.75941414804971
H           -8.08123701094202       -2.61022308964491       -1.10698779504629
C           -9.38813248839264       -1.99081594817011        0.48800661013672
C           -9.49169433436274       -1.15817837477872       -1.85687130340906
H           -9.83138369425867       -1.07524754315755        0.87477285362013
H          -10.18001423409126       -2.68710618391954        0.22688806807383
H           -8.75611520573938       -2.43135639592256        1.25508393907350
O           -9.32770685448093        0.13243240591373       -2.11963083630111
O          -10.30470634555461       -1.84770830468655       -2.40696455546616
