42
 energy: -62.486133524893 gnorm: 0.000478060959 xtb: 6.7.1 (edcfbbe)
N           -2.19575632169209       -2.19859492192089        1.09150886935692
H           -2.26869443736419       -1.96277924058392        2.07597412152887
H           -1.29716437774739       -2.64266605870134        0.94284430779217
H           -4.06634918606962       -2.46713885057636        0.61275705600259
C           -2.32712309468669       -1.00173866065085        0.26411404383197
H           -1.77587175446113       -0.13051227547964        0.64384245745707
C           -1.86027945401918       -1.30827173191913       -1.15986391801029
C           -3.80700102308373       -0.65161039399857        0.22035314431837
H           -2.41726915770039       -2.15154847460544       -1.56339459189277
H           -2.01962643385645       -0.43933335654468       -1.79139453472077
H           -0.80094889811526       -1.55599877451812       -1.16573003704261
O           -4.62902373537854       -1.69909293898335        0.38362171199881
N           -4.13754979844577        0.54086819376776        0.00790345070995
H           -5.74251098497897       -0.08495084971270       -2.22793775846712
C           -5.50195239917255        1.01478705206713       -0.08661860099170
H           -5.77923014193377        1.36711347827708        0.91367407071198
C           -5.51468399532873        2.20231855497355       -1.06205823299905
C           -6.50780059966367       -0.04430555054841       -0.47648853234149
H           -4.86450149736483        2.97200949106096       -0.64456189391695
H           -5.06669516153268        1.89400134957300       -2.01218964036129
C           -6.90876774163705        2.78417513630703       -1.32248941893868
O           -6.45691038632231       -0.51406720083483       -1.74066209035915
H           -7.54449718277751        2.00703313911835       -1.76238790453844
C           -7.56956554109481        3.26738011493172       -0.03386301707663
C           -6.79634891469478        3.93490583312739       -2.32171941752842
H           -6.91755571291532        3.96248731673089        0.49065542789583
H           -8.50192944898194        3.77827539523895       -0.26242061416838
H           -7.79635382449703        2.43270406707485        0.62395754992049
H           -6.33613251798635        3.60163699384932       -3.24962211724931
H           -7.78030938846512        4.33452871650883       -2.55400372248411
H           -6.18963375105500        4.73676220586758       -1.90664762782726
N           -7.32676951929154       -0.46052780130189        0.38451980686608
H           -8.10805869195790       -0.33022750249323        2.00789576103489
C           -8.30545063415962       -1.47966439378985        0.07615580640005
H           -8.80804071520647       -1.28337987366761       -0.87934624630394
C           -7.67978914080649       -2.87785300035553        0.02819934379314
C           -9.34854417216333       -1.45842532958744        1.20161914031791
H           -7.14173954253390       -3.07153053422987        0.95340724274884
H           -8.46463485821957       -3.61862253650245       -0.09554069170696
H           -6.98285368478106       -2.93983056666370       -0.80284012956444
O           -8.97768531778231       -0.72912733107375        2.24816499141429
O          -10.38458806597185       -2.06121478772152        1.14954778139272
