42
 energy: -62.486133507492 gnorm: 0.000480790066 xtb: 6.7.1 (edcfbbe)
N           -0.72841747376332       -0.06964491195687       -0.80056897973050
H            0.02367156008580       -0.51887324164784       -1.30803076380109
H           -0.42985819949149        0.03266923647232        0.16549066850290
H           -1.87218686897674        1.42460867185393       -0.95252059049914
C           -1.95499465669093       -0.86215113642304       -0.86119067738959
H           -2.08345771562963       -1.18462685027049       -1.90264172000582
C           -1.95135134583552       -2.08848701006090        0.05057155327337
C           -3.11705582799428        0.08472441891912       -0.55215234773727
H           -1.88952749346383       -1.78067078722844        1.09228946107500
H           -2.86066144851968       -2.66467856082862       -0.08253558978847
H           -1.09813438086774       -2.72327709444116       -0.18170823404328
O           -2.82121994194501        1.38011003750063       -0.70718420845424
N           -4.20634969322515       -0.41732035881457       -0.17995136721692
H           -5.07167245920033       -1.92177749265738       -0.57418274965341
C           -5.47264802561159        0.23329601942129        0.07989804367404
H           -5.54871177484928        0.36875263233025        1.16654688351870
C           -5.63794663476766        1.59571159013660       -0.61437947204731
C           -6.52768987154648       -0.79722697989757       -0.32070896789277
H           -4.84569456316044        2.24452122592016       -0.23811321228147
H           -5.46516971075397        1.44930301769880       -1.68373352034052
C           -6.97531948284133        2.31721410595631       -0.42741570590721
O           -6.04928934743696       -2.00315866267163       -0.64986067306573
H           -7.74549584595417        1.77051105592071       -0.97436209802399
C           -7.37813175908698        2.41364207229313        1.04131728201788
C           -6.86869511423070        3.71727205629530       -1.03171686745596
H           -6.59668215884361        2.90510969072667        1.61811131522892
H           -8.29131868332721        2.99567063177199        1.14053558420735
H           -7.55494049092764        1.42675379325845        1.46029551198263
H           -6.57247415216407        3.66485317271356       -2.07669972878016
H           -7.82740522421286        4.22652485941822       -0.97352851600569
H           -6.13087010407199        4.31100775171859       -0.49554218690165
N           -7.75553318704568       -0.50685756759791       -0.32566169574291
H           -9.20542616044544        0.63535161068131       -0.05249206990171
C           -8.74215864404831       -1.50014600779026       -0.69735220066446
H           -8.46070410929624       -2.02918350794801       -1.61609393836241
C           -8.96127473213244       -2.53092368028462        0.41796620657323
C          -10.07276946145705       -0.77335042321902       -0.92210376639034
H           -9.21630938099904       -2.02466092890495        1.34728508178134
H           -9.77456797420112       -3.19523782072974        0.13976494730758
H           -8.05481713250059       -3.11178493025283        0.56664876117054
O          -10.10415235104693        0.44997015255630       -0.40527914030979
O          -11.00877923767699       -1.27556571255912       -1.48007529647204
