42
 energy: -62.486133509526 gnorm: 0.000479997351 xtb: 6.7.1 (edcfbbe)
N           -1.28155525263583       -0.90551005062600       -0.96159336646619
H           -0.61823457927079       -1.66355166570699       -1.06493875804042
H           -0.81107073555565       -0.15338728393910       -0.46539026980533
H           -2.51343433589933        0.06096793257678       -2.01856716316222
C           -2.45837543745942       -1.33639777631655       -0.20613932808764
H           -2.76406893501660       -2.31269893390454       -0.60326094404780
C           -2.24389475392225       -1.44979452574922        1.30016030064048
C           -3.58464134392269       -0.36187947515388       -0.53487717552519
H           -1.90646275528504       -0.49669679719900        1.70287480491381
H           -3.18321307914362       -1.70841000528591        1.77650292955691
H           -1.50058385752149       -2.21243467574226        1.52348241563670
O           -3.41216369893620        0.29721495563332       -1.70481369437305
N           -4.57554686154714       -0.30101449898636        0.23051944241973
H           -5.84938775707163        0.03500019002622       -2.26549397826832
C           -5.71512539089568        0.57849484827560        0.07740985368420
H           -6.06348491965614        0.73750330001441        1.10416466534572
C           -5.49136153759187        1.93814632672518       -0.59436598398805
C           -6.77099238876813       -0.25639549155911       -0.61437803007904
H           -4.73918136431716        2.47731205978230       -0.01344239781010
H           -5.08689835390844        1.81304082617705       -1.60118141711178
C           -6.77243263948424        2.77810688551564       -0.68059058973763
O           -6.63410215638431       -0.43047183166773       -1.94420525523317
H           -7.53738749045996        2.19994449441479       -1.21214078374103
C           -7.31799612864311        3.14051316869104        0.69855768428812
C           -6.48599596282692        4.04959379572034       -1.47904189673353
H           -6.55031669678617        3.62916131476672        1.29505660679310
H           -8.15837139922631        3.82334321562212        0.59757407952642
H           -7.66564275529467        2.25840207759226        1.22903194372400
H           -6.12120678539404        3.81055240335473       -2.47584266091822
H           -7.38894125459725        4.64647440073628       -1.58113309987468
H           -5.73333139941590        4.65092687427872       -0.97323284148957
N           -7.66023782257200       -0.82256472782171        0.07227618843806
H           -8.61625342738199       -0.95307373648342        1.61203007729251
C           -8.64382488838017       -1.69672895508841       -0.52768538640440
H           -9.03713203522868       -1.28828006841488       -1.46711341522130
C           -8.06620899041146       -3.09066856994791       -0.79794751084526
C           -9.79859083813339       -1.83783630569365        0.47468755763842
H           -7.62597136471872       -3.49146718997042        0.11280158792340
H           -8.86239926575733       -3.75015208682888       -1.13171404074496
H           -7.29878685957366       -3.03092530446597       -1.56552284792657
O           -9.52043239707687       -1.34087644606093        1.67378152020339
O          -10.84095136241236       -2.36550845064777        0.20263626403814
