42
 energy: -62.486132299622 gnorm: 0.000621338593 xtb: 6.7.1 (edcfbbe)
N           -0.77157397149311       -0.17573326680875        0.21653773111266
H            0.13133666016116       -0.36360132728830       -0.20158895088437
H           -0.80432596826001       -0.66387657297338        1.10736735821352
H           -1.93768459210090        1.30858355603150        0.59272131609965
C           -1.85740181818997       -0.64096262965305       -0.64465265234392
H           -1.63892022404850       -0.28739403992207       -1.66116991047570
C           -2.04252474936751       -2.15741859343160       -0.66719896719099
C           -3.11960611646705        0.08230864830205       -0.19305837727701
H           -2.32555421211476       -2.51590041180913        0.32012873598667
H           -2.82474106573128       -2.42929784605810       -1.36773250214134
H           -1.11639272871300       -2.64331558321925       -0.96864287330658
O           -2.90567726127393        1.22638255327050        0.46966933156782
N           -4.24739515156479       -0.41365381485397       -0.44835105327866
H           -5.23439194061348       -1.60675689402057       -1.42944853951483
C           -5.49420261634340        0.23705689041718       -0.10176660031820
H           -5.55053185582253        0.42647967462281        0.97441147313359
C           -5.64173301071046        1.57269243252432       -0.86123573834830
C           -6.58886182089847       -0.72803325874652       -0.51564818093939
H           -4.80891397691660        2.21122783284215       -0.56181167839609
H           -5.53812694031290        1.36161028251868       -1.92954391092737
C           -6.95368910074390        2.32406701907497       -0.62429003302169
O           -6.20804164071751       -1.69975745549537       -1.35098073665242
H           -7.78502041823174        1.68968503039274       -0.94317502723619
C           -7.14640586035587        2.68268964168892        0.84652003976660
C           -6.96340347960563        3.59268158989075       -1.47649260420781
H           -6.30917708096379        3.27906070890385        1.20401891878371
H           -8.05897549105205        3.25976581216833        0.97303067440898
H           -7.22402649020817        1.78891496289357        1.45923051578900
H           -6.84171349296175        3.35269196886699       -2.53036937962280
H           -7.90535677334354        4.12108111593665       -1.35374068677995
H           -6.15500821682936        4.25797353567676       -1.17946769024593
N           -7.76451566389247       -0.56957101625051       -0.08562048481294
H           -9.04576618955188        0.49116392324029        0.66243984222337
C           -8.83523411596200       -1.45476980595640       -0.49115768028643
H           -8.79470580766821       -1.68094625042268       -1.56439538105799
C           -8.80399644084356       -2.77244785095494        0.29123496424906
C          -10.15986217264241       -0.74140004241373       -0.18692870945003
H           -8.80029767848799       -2.56861944797136        1.36022893198624
H           -9.68397937842543       -3.35889016885961        0.04289267023254
H           -7.90922142162173       -3.33344609487616        0.03347483669421
O          -10.01468077469574        0.36713493286764        0.52930769470235
O          -11.22589021020183       -1.15948560742743       -0.54581168202094
