42
 energy: -62.486133512733 gnorm: 0.000479958243 xtb: 6.7.1 (edcfbbe)
N           -1.39617740467456       -1.30609954446568        1.06656050297592
H           -0.40775951081785       -1.48856395919209        0.94191923217552
H           -1.84111827075240       -2.18390179578051        1.32167658547150
H           -2.57121742254739       -0.05094335435546        1.95107777690479
C           -1.99286858388794       -0.78340412890680       -0.16110204543424
H           -1.33627516239901        0.01892297629863       -0.52413903131037
C           -2.18347720977771       -1.81707057193132       -1.27055168461850
C           -3.30934860076222       -0.12669060762642        0.23013769122737
H           -2.87119691315440       -2.59529370064461       -0.94533662207261
H           -2.59635889127807       -1.33645784721905       -2.15129195181074
H           -1.22957328888539       -2.27260126784196       -1.52942982288177
O           -3.38687246598844        0.26167609661642        1.51041556895358
N           -4.20569934491289        0.03802223038913       -0.63759970764485
H           -5.42695809877017       -0.79793301510258       -2.10424308599772
C           -5.47395877755859        0.65520789400658       -0.30024479822639
H           -5.54940214479318        0.90296710318777        0.76276723726965
C           -5.65520562526907        1.91706630317052       -1.15919595495816
C           -6.52779133584209       -0.36969480054151       -0.64768229534428
H           -4.86337735943379        2.62099166346665       -0.89425352171109
H           -5.51376306131118        1.64020549748389       -2.20742786140842
C           -7.02087661620918        2.59146800986301       -0.99348136432083
O           -6.31439817822692       -1.04124638403578       -1.79035941442177
H           -7.80304043918184        1.85226500010510       -1.19633217212608
C           -7.21891837399884        3.13006478449481        0.42072765321145
C           -7.15145482811194        3.72671680252014       -2.00791046255258
H           -6.43264506883009        3.84018120411373        0.66909121713626
H           -8.17699329848813        3.63834315161552        0.49573751265934
H           -7.20681523543136        2.32643773464934        1.15116057113799
H           -7.04697644826065        3.35375850267456       -3.02435591437156
H           -8.12399544105384        4.20412813878741       -1.91804881551784
H           -6.38346197850490        4.47829948777822       -1.83660928018716
N           -7.50017402970684       -0.56363190952073        0.12841403122060
H           -8.60263546416418        0.09719044263700        1.39959732581312
C           -8.53257071050412       -1.53169410525250       -0.17246737261518
H           -8.80620054256434       -1.52328440723313       -1.23527375734044
C           -8.10201076343149       -2.95009298843973        0.21493720537917
C           -9.76916134184839       -1.15004965799119        0.65575155413286
H           -7.76829035055092       -2.96558538223608        1.25051887022409
H           -8.94620475002090       -3.62430440547793        0.10178366531177
H           -7.28751357780859       -3.27792505223221       -0.42631895703760
O           -9.54288112425771       -0.17365100327896        1.52562703722562
O          -10.83057322603999       -1.69581895594669        0.53468965556773
