42
 energy: -62.486133062734 gnorm: 0.000565854900 xtb: 6.7.1 (edcfbbe)
N           -1.27543544513749       -1.22055169643650        0.99920423509227
H           -0.28336113487117       -1.36387279690155        0.85600715648938
H           -1.68032837609347       -2.11548431290841        1.26034157439055
H           -2.47456084505326       -0.00484356362583        1.90774502610843
C           -1.91518074257024       -0.71916001222736       -0.21554929279551
H           -1.29733912135329        0.10818503245115       -0.58955414338077
C           -2.08775869405223       -1.75712301411502       -1.32355732530879
C           -3.24696504906832       -0.11254633915395        0.20392452218257
H           -2.73702936907476       -2.56206130538769       -0.98673399110484
H           -2.53514718790863       -1.29203034814482       -2.19522898711899
H           -1.12232487803128       -2.17526387811432       -1.60167559016159
O           -3.31036863921875        0.27670456008469        1.48442531880546
N           -4.16743074250740        0.01828841994334       -0.64439140433794
H           -5.27145120516483       -1.02119222752104       -1.93563397036558
C           -5.45202219540192        0.58367257469305       -0.28198960213427
H           -5.51824914763425        0.82487154784276        0.78316332222353
C           -5.68748717837657        1.84620477668445       -1.12917037935059
C           -6.48245275289496       -0.46928830041831       -0.61990534687715
H           -4.88937452769998        2.55533316354397       -0.89830141580109
H           -5.59056914612416        1.56997284028237       -2.18239150209981
C           -7.04711919430583        2.51383833274916       -0.90197852598684
O           -6.17939657483090       -1.25231582558249       -1.66606665923526
H           -7.83432940173779        1.77265150133413       -1.07190351879158
C           -7.18529967249264        3.05138285965008        0.51987930252661
C           -7.22647730027448        3.64992163073124       -1.90813375658383
H           -6.40098751107738        3.77647360808965        0.72858366788706
H           -8.14793992246639        3.54184418907527        0.64098376373423
H           -7.12157137065632        2.25024415120579        1.25052830429717
H           -7.16671947241850        3.27809154163835       -2.92852558978082
H           -8.19571348052990        4.12350586475648       -1.77382550829952
H           -6.45423117551505        4.40425642148002       -1.77101903420995
N           -7.53599400770566       -0.55827466808327        0.06482636650852
H           -8.76680389062021        0.30237056165206        1.08253797543872
C           -8.56400563646553       -1.52762197153520       -0.24466136757809
H           -8.69192528772648       -1.66264690987418       -1.32651041058970
C           -8.25715173980606       -2.88750687308894        0.39073410762260
C           -9.88068546903561       -0.99822559891359        0.34384766984794
H           -8.07178123086135       -2.76508868390956        1.45600688984555
H           -9.10708733022443       -3.54925982198116        0.24979776027945
H           -7.37689986108250       -3.32374646693554       -0.07519925650295
O           -9.72719364550221        0.07869970406941        1.10441199610052
O          -10.94204170636039       -1.52043449228227        0.14389261776920
