42
 energy: -62.486133504883 gnorm: 0.000481336791 xtb: 6.7.1 (edcfbbe)
N           -1.20693458336513       -1.87389012017674        0.33033775683724
H           -1.25819203653396       -2.07796202569931        1.32289603756472
H           -0.23069005583274       -1.88212382155807        0.05965736808473
H           -2.79751726087082       -2.58263525194200       -0.38013650513284
C           -1.82031543985029       -0.57988843137165        0.03318090364668
H           -1.62550779745656        0.18999026167519        0.79086519059653
C           -1.33760092326775       -0.07786539593094       -1.32787024798074
C           -3.32646890829110       -0.80387505408260       -0.04773651438640
H           -1.52597505546815       -0.82796070499701       -2.09339702250868
H           -1.86666289928403        0.83394105083129       -1.58776663039975
H           -0.27030259687389        0.13078142575116       -1.29845501721227
O           -3.64335256757268       -2.08151931628970       -0.39818677439389
N           -4.08187358872671        0.16224022496624        0.16477671351659
H           -5.28631098122617       -1.95807867461858       -0.83973423544899
C           -5.49441845577433        0.39914690673321        0.13076542046399
H           -5.72403863726349        0.86988654032531        1.09211653222810
C           -5.66974878839090        1.46445276264507       -0.98704213172216
C           -6.52841786701232       -0.69260491461825       -0.09172593544258
H           -4.84599952895490        2.17110949699802       -0.86888677187094
H           -5.54092880976448        0.96078789439920       -1.94904590674510
C           -6.99210242748923        2.23320161726350       -0.99730459846571
O           -6.24636705543029       -1.81902875446123       -0.75123277476516
H           -7.81630925676368        1.51912699598406       -1.07081516149518
C           -7.17688117409372        3.06854645680112        0.26616648133765
C           -7.03243698669209        3.13853046751029       -2.22832042698926
H           -6.36551403307758        3.78646946043381        0.36805870638226
H           -8.11564565053132        3.61425743679144        0.21755369924030
H           -7.19802195763002        2.44221339925302        1.15345618645280
H           -6.92996356233806        2.55672118779649       -3.14151995214355
H           -7.97743234982290        3.67385875978274       -2.27021352220733
H           -6.22566299972933        3.86800521370468       -2.19264173361570
N           -7.70631014452089       -0.40599580699420        0.27491103608490
H           -8.93611594564072        0.79598119336126        0.86192568347348
C           -8.80995729433047       -1.30694546603043        0.02475680716684
H           -8.79026756641047       -1.70027042346931       -0.99992052527420
C           -8.82159865521316       -2.48685844336313        1.00358390842816
C          -10.10488894508554       -0.50656341039036        0.22058836758215
H           -8.79486890594133       -2.11923473643295        2.02762241273975
H           -9.72871954407064       -3.06602646909901        0.85592659985846
H           -7.95545664450175       -3.12047357838511        0.83042946255352
O           -9.91157378063205        0.69179063813356        0.75908595523691
O          -11.18883959750906       -0.93326430659971       -0.06777398335216
