42
 energy: -62.486133540872 gnorm: 0.000476620991 xtb: 6.7.1 (edcfbbe)
N           -0.79501373159465       -0.11906007285697       -0.70698920003112
H           -0.06441147030888       -0.38586716351155       -1.35528446865487
H           -0.50684867369091       -0.42096779601050        0.21970928286656
H           -1.86834947471800        1.41315045135671       -0.27852528687225
C           -2.06703766774937       -0.74711644972489       -1.06246057122142
H           -2.19659953043506       -0.63547710230608       -2.14633312752915
C           -2.17617171962986       -2.22516955769166       -0.69533221470019
C           -3.17486165532681        0.07403655191246       -0.41477859631271
H           -2.01014380987313       -2.36032870954577        0.37205014874173
H           -3.17162678186528       -2.58123597824383       -0.93767835616154
H           -1.44018800374944       -2.80975822395044       -1.24337872485866
O           -2.82293129912992        1.32615247083451       -0.07695715572345
N           -4.30596237951186       -0.44761541174609       -0.25217009184252
H           -5.55539429361766       -1.69211929550296        1.66774089296340
C           -5.43917229303672        0.27018173747074        0.30406215026413
H           -5.21379605642422        0.57175970987104        1.33835986872265
C           -5.81746625819127        1.50907206459145       -0.51688049941352
C           -6.54087136728814       -0.76822276649153        0.31698150528406
H           -4.94987513090880        2.16865686850429       -0.55648483255399
H           -6.03862893077667        1.17299177717136       -1.53092284779777
C           -7.01379204553383        2.28764531463078        0.04032631070815
O           -6.41899891088828       -1.74682170632731        1.24046381782113
H           -7.82899496355054        1.58501902669723        0.23584976979142
C           -6.66075051509036        3.00619039493147        1.34108380075021
C           -7.48746706182411        3.30078110539072       -1.00046953885812
H           -5.81885228182077        3.67812195770115        1.18699927974234
H           -7.50803153099522        3.59276142411867        1.68905010149442
H           -6.39900396646205        2.30098611101055        2.12609141356201
H           -7.78606765681943        2.80022471034942       -1.91826567550649
H           -8.33991015786620        3.86197049553297       -0.62499309278902
H           -6.69096241792074        4.00412517672080       -1.23437799527768
N           -7.44753701207106       -0.75564553934511       -0.55318390898613
H           -8.11451926655297       -0.08546392703593       -2.08084146689513
C           -8.46178904145650       -1.78025491889133       -0.63022489980883
H           -8.03240194460533       -2.78611985720968       -0.54172907436911
C           -9.53418839121186       -1.60398875484215        0.45062776984120
C           -9.13312710827600       -1.64077726531896       -2.00568217632434
H           -9.94668501044244       -0.59779793791311        0.40488611965568
H          -10.33200950866627       -2.32233322727255        0.28479402820680
H           -9.09907029743070       -1.76573160485133        1.43357112006666
O           -8.78403631517367       -0.53482475418080       -2.65102129010785
O           -9.91264532389313       -2.44315517004973       -2.43874719053095
