42
 energy: -62.486133503064 gnorm: 0.000481799860 xtb: 6.7.1 (edcfbbe)
N           -1.47089498990604       -1.44582222588776        1.05592520126869
H           -1.14565204030749       -0.70607331836026        1.66937294186917
H           -0.68365948479189       -2.04872658103556        0.84936568447048
H           -3.32520479233311       -1.60350080929509        1.61142987891696
C           -2.03723438285455       -0.88967626293480       -0.17052969234417
H           -1.47263258112888       -0.03917258738726       -0.57703842517731
C           -2.13265799183742       -1.98127333620261       -1.23799862381147
C           -3.44182400639969       -0.41881366598335        0.16472270488916
H           -2.75601953397332       -2.80025139862885       -0.88574514389366
H           -2.56253894075898       -1.57174865933295       -2.14723723099962
H           -1.14297203771429       -2.37038595063641       -1.46760661326983
O           -4.00837727172613       -1.02288216880896        1.21660434477515
N           -3.99346316978718        0.46297185971731       -0.54832026864037
H           -5.07720341965289       -0.81746337488671       -1.92273635523752
C           -5.36361417774780        0.85122409046465       -0.25977377957543
H           -5.47924999129385        1.10615135311446        0.79887145480531
C           -5.70183614259475        2.06183342377569       -1.14449544531460
C           -6.29651672919940       -0.29746689924002       -0.56548481785274
H           -4.96145518957331        2.83564849978592       -0.93472125333635
H           -5.57490480001201        1.76309804138641       -2.18801155924392
C           -7.11120432476856        2.62646848148670       -0.94602600753686
O           -5.92810486857117       -1.11820790210075       -1.56877566676132
H           -7.83600642002672        1.81830960308742       -1.08550797819649
C           -7.29804592504171        3.20747019686093        0.45315448790761
C           -7.38038293562106        3.70269661596446       -1.99684176011679
H           -6.57085954414533        3.99611348242294        0.63609361862624
H           -8.29488573107998        3.62979980267424        0.55179637292575
H           -7.18072436419850        2.44190822871335        1.21481663869200
H           -7.27911634057466        3.29793008472897       -3.00126035930095
H           -8.38862258025512        4.09405665864534       -1.88715170127848
H           -6.67816123589120        4.52637162241704       -1.88585130611327
N           -7.37860393154140       -0.40646787983840        0.06775441565594
H           -8.67844073862953        0.38511699094373        1.05993838078862
C           -8.33092152672553       -1.45286727054681       -0.22758678403765
H           -8.42987669357978       -1.62598786894001       -1.30725214067900
C           -7.94208953477317       -2.77061590792581        0.45067698148126
C           -9.68990483270242       -1.00011636352613        0.32636847427138
H           -7.79185070043080       -2.60806243476754        1.51591700042415
H           -8.73750269860225       -3.49651124768048        0.30723438315284
H           -7.02022629314573       -3.15075216767251        0.01764220113190
O           -9.62125353177138        0.09681540125572        1.07062174733047
O          -10.71149483138172       -1.59316396644093        0.11658109274885
