42
 energy: -62.486132534132 gnorm: 0.000657477588 xtb: 6.7.1 (edcfbbe)
N           -0.75051544691682        0.04848420116565       -0.51240252510059
H            0.06328551046842       -0.26256240004153       -1.02848350049604
H           -0.56035580060697       -0.09199453216147        0.47589771125772
H           -1.94118947155152        1.55134769806164       -0.47807873616191
C           -1.94115204518189       -0.70375465814700       -0.90342579681275
H           -1.96418615664517       -0.72450582382303       -2.00108895731364
C           -1.99020857114305       -2.13643921016319       -0.37549871279548
C           -3.15024233326823        0.11840553293150       -0.46487063240590
H           -2.05225416989264       -2.13699079193480        0.71077636638504
H           -2.85822181166067       -2.65049309800112       -0.77455839691057
H           -1.09499454898297       -2.67661386205390       -0.67810622164599
O           -2.90291382985072        1.42975279661559       -0.33592621249727
N           -4.24204737190963       -0.46973420893327       -0.26715690807081
H           -5.10651055058778       -2.12130646162616        0.00316733806907
C           -5.50723560748074        0.13578337957002        0.09431272522750
H           -5.50252569089304        0.28207266168651        1.18470759883504
C           -5.86075543726940        1.46229264766536       -0.58913256291738
C           -6.53450714834266       -0.94749843418075       -0.20471828194778
H           -4.96387514950823        2.07598137381910       -0.66030996110055
H           -6.20179223895835        1.23858083361292       -1.60130901743021
C           -6.93930474294319        2.25606825042226        0.15955726474899
O           -6.07858886444263       -2.20131177306664       -0.07890926296758
H           -7.71700294714207        1.56211828363587        0.49047294470052
C           -6.35418420284594        2.95854054185797        1.38343160591572
C           -7.56502811406602        3.28819238893091       -0.77660573788606
H           -5.59230482203271        3.67407279842454        1.08068986848931
H           -7.13362708515739        3.49386850726825        1.92070276400881
H           -5.89977610131235        2.24835898446910        2.07033566141811
H           -8.02907783554024        2.80759715728903       -1.63423781206678
H           -8.32735532860848        3.86167368898878       -0.25483880850325
H           -6.80540904638611        3.97870023045828       -1.13779832247654
N           -7.70232010835979       -0.64577255550806       -0.56715996297793
H           -8.82347558677015        0.55437454211181       -1.33167840754686
C           -8.68457644408208       -1.66079436239763       -0.87327174747042
H           -8.24448884191331       -2.50993692231700       -1.41227413004416
C           -9.36550986981539       -2.18211425169442        0.39667608303193
C           -9.74976467465041       -1.00520865188208       -1.76403730566110
H           -9.77218162795517       -1.35012403262574        0.96829920736012
H          -10.17339404540083       -2.85424749392944        0.12175236633827
H           -8.64301088904520       -2.71489437413920        1.01001907361975
O           -9.62404633731195        0.31337411674834       -1.85590567334720
O          -10.61956587550290       -1.62536858425706       -2.31007995454497
