42
 energy: -62.486133517582 gnorm: 0.000479415601 xtb: 6.7.1 (edcfbbe)
N           -0.77046149348323        0.00102507752032       -0.73039061487816
H            0.01924122091060       -0.40316319609005       -1.21870805772612
H           -0.53961348876783        0.02817276903615        0.25882302841395
H           -1.96820302468954        1.49802928121031       -0.92749353965277
C           -1.97974969105004       -0.79335299067721       -0.93892586489228
H           -2.05937680334585       -0.97997325414099       -2.01843854298490
C           -2.00176725363600       -2.12952749424705       -0.19896216880753
C           -3.16339627662071        0.09706841081676       -0.57152340601125
H           -2.00303980754990       -1.96618257739294        0.87678069848529
H           -2.89227619408523       -2.68778386151781       -0.46831160499264
H           -1.12618046464527       -2.71840930581036       -0.46587464170366
O           -2.91838420648968        1.40928692020808       -0.70731531722766
N           -4.22830765144708       -0.44256439358742       -0.18349240314717
H           -5.09893088513490       -2.04269733024405        0.43246860985166
C           -5.48238142897935        0.20533326504742        0.14189845845473
H           -5.44356927180884        0.46660662903627        1.20989164100394
C           -5.86251475569665        1.44835412074638       -0.67010578225158
C           -6.51095019219787       -0.90713594202066       -0.00539677725468
H           -4.97876094033839        2.06988033995025       -0.80534584238246
H           -6.19812524317702        1.11558065763720       -1.65375663411814
C           -6.95753991747266        2.29185709770887       -0.00455628294735
O           -6.06860267685532       -2.12425875621053        0.34434603643998
H           -7.72426674284651        1.62053582273961        0.39198763745371
C           -6.38916826649043        3.12278069489107        1.14445402994348
C           -7.59908131373420        3.21536228954696       -1.03854091942553
H           -5.63315059160481        3.81254003508600        0.77441263789497
H           -7.17840004196233        3.70160784217664        1.61858871065938
H           -5.93272112716229        2.49256961369913        1.90419747766361
H           -8.05157100546035        2.64471377470242       -1.84560090675946
H           -8.37342291064478        3.82299555475824       -0.57636613568460
H           -6.85114387465265        3.88106865847776       -1.46468974981895
N           -7.66034257170655       -0.67130278207053       -0.46150415962950
H           -8.76821643273367        0.40434466798093       -1.40132281027142
C           -8.64032467009015       -1.72021439746474       -0.62916951004038
H           -8.19367073141765       -2.63747622359695       -1.03435425907237
C           -9.33960676796371       -2.05494258626487        0.69272377889768
C           -9.69270748853749       -1.19923739117807       -1.61920580607483
H           -9.75050329235682       -1.14970918328793        1.13564378286783
H          -10.14683858500116       -2.75704966509697        0.50425141710197
H           -8.62777771770421       -2.49776231279394        1.38495945077048
O           -9.56403388816224        0.09272320107136       -1.89540094956362
O          -10.55635279630429       -1.89171897426044       -2.08173972929602
