42
 energy: -62.486133507147 gnorm: 0.000480375914 xtb: 6.7.1 (edcfbbe)
N           -1.40469253186477       -1.19854574698871       -1.25853578702899
H           -0.68561168633527       -1.90798542656158       -1.19016002544266
H           -0.94016166779376       -0.29544318541045       -1.29971112026302
H           -2.97509042198028       -0.89374068815226       -2.25365307662969
C           -2.29869831052030       -1.24273792011482       -0.10027369717727
H           -2.55655773389844       -2.29594210581599        0.07271722757610
C           -1.71971380448781       -0.64965226151282        1.18015657953111
C           -3.59202234389821       -0.54851703468071       -0.50486935716162
H           -1.43189539851559        0.38690070503385        1.01620570067062
H           -2.47377338268841       -0.67477146265089        1.95925077822608
H           -0.84718370138657       -1.21496607045325        1.50066391824127
O           -3.79035028524483       -0.52258332634321       -1.85247973865268
N           -4.34217576429962       -0.07777345892724        0.37845678299087
H           -5.62669065314365       -0.53125859397663       -2.04541376503137
C           -5.62431440867350        0.56059979385818        0.16737129520711
H           -5.97593814233878        0.81417271127400        1.17163591135985
C           -5.49864362437875        1.84198414981040       -0.67745071865628
C           -6.65101562221441       -0.37487418799289       -0.43567424058623
H           -4.82950139069705        2.52395841014402       -0.14767701265890
H           -5.02740326438030        1.59671083805637       -1.63296836269289
C           -6.83472022325848        2.54214647711744       -0.94863495928331
O           -6.49037175595747       -0.80652318484172       -1.69374032155191
H           -7.49651331528142        1.84782942744813       -1.47842441273093
C           -7.52482465701780        2.97279532608110        0.34282340830281
C           -6.59165235955805        3.75466030628157       -1.84671001306684
H           -6.85487484036307        3.57965653063246        0.94822103170796
H           -8.40866822782491        3.56311227658908        0.11330718149942
H           -7.83839993842338        2.10952060172188        0.92283164959319
H           -6.11851225050006        3.45853394933129       -2.78068895463268
H           -7.53175842219158        4.24709837267404       -2.08238044110877
H           -5.94499239392289        4.47235695451354       -1.34598031289917
N           -7.63127097229128       -0.70617329324526        0.28737332280306
H           -8.65398683524558       -0.45449360407538        1.75481243918739
C           -8.67254432585549       -1.58324157212653       -0.20103512742564
H           -8.98498368431076       -1.31919877286381       -1.21939003721557
C           -8.23221337272365       -3.05133970447890       -0.18433615852026
C           -9.87477159365551       -1.42711332660572        0.74168987289897
H           -7.86615443420074       -3.31674438189440        0.80564054699617
H           -9.08011085654508       -3.68317843214979       -0.43347759150788
H           -7.43817723619043       -3.20824640586328       -0.91018431089251
O           -9.59500107491037       -0.73810643773378        1.84171486621073
O          -10.95326520739000       -1.89957817212569        0.51240174022481
