42
 energy: -62.486133514520 gnorm: 0.000479385830 xtb: 6.7.1 (edcfbbe)
N           -0.75171387468950       -0.02142238563085       -0.34682381931372
H            0.07616939256707       -0.24843994706994       -0.88395061000976
H           -0.61715945271992       -0.38601795569010        0.59184558506557
H           -1.91730045165662        1.49898476437382       -0.02581586379475
C           -1.94541454968669       -0.61513633133142       -0.94565942106305
H           -1.92333666974385       -0.37437811765995       -2.01683150201087
C           -2.06479103454690       -2.12824605303744       -0.77646228778223
C           -3.14658435449987        0.12154692188288       -0.36623859842627
H           -2.10625722067237       -2.38738209197098        0.27985920998549
H           -2.97199543302752       -2.47854391129632       -1.25734955336170
H           -1.20937469097121       -2.62664304024184       -1.22798677272783
O           -2.88400918696540        1.36917113056761        0.05264825793179
N           -4.25894064220043       -0.46092410085437       -0.32446712047091
H           -5.18085159322646       -2.15800141647695        0.27535766509599
C           -5.49031365470926        0.13569435952093        0.15892116687255
H           -5.41773121299853        0.25514810712410        1.25034167736284
C           -5.84373483603927        1.48535799373629       -0.47604078554231
C           -6.53697458483955       -0.92683995021612       -0.12514633435710
H           -4.95206548293529        2.11207640767385       -0.48275273724755
H           -6.13805327017717        1.29804009087769       -1.50981628526640
C           -6.96469590771267        2.23158537621048        0.25813716446032
O           -6.14689807068817       -2.18143618037734        0.16229251072112
H           -7.75294214598722        1.51724440318254        0.51171568532753
C           -6.44969104197815        2.87326420218198        1.54528450494067
C           -7.55126542136982        3.30664216574172       -0.65499752986829
H           -5.67108702657656        3.59946679488194        1.32088045412218
H           -7.25808691201970        3.38543745080445        2.06206249628315
H           -6.03667556623521        2.12954369883067        2.22245796704947
H           -7.96690761362651        2.86739038376547       -1.55851775918022
H           -8.34406244742414        3.84808796192796       -0.14451707824276
H           -6.78049216353271        4.01942822814753       -0.94157584863600
N           -7.63645584395623       -0.63612137546003       -0.66318522960880
H           -8.67128510663245        0.54324617805058       -1.55681397601281
C           -8.61583210035164       -1.64772075397873       -0.98790212350176
H           -8.15300101115233       -2.52426543198450       -1.45972303428375
C           -9.39144102209294       -2.10910140390948        0.25042983193347
C           -9.60516721788633       -1.01400654177953       -1.97737670219658
H           -9.82786878248516       -1.25087588323357        0.75778878114126
H          -10.18624379055997       -2.78383908370538       -0.05475088367628
H           -8.72125906802149       -2.62370845402668        0.93442011331983
O           -9.44307891545215        0.29586745569560       -2.12026134336994
O          -10.45132128208696       -1.64219953488670       -2.55054486426563
