42
 energy: -62.486133508134 gnorm: 0.000481080873 xtb: 6.7.1 (edcfbbe)
N           -1.15127500401650       -0.98612003208392        0.92606896929765
H           -0.16764856047521       -1.12944685831452        0.73246118487900
H           -1.50944285952482       -1.84157360958419        1.34187571295761
H           -2.32473474814143        0.32670465875844        1.73453790066313
C           -1.88936967085493       -0.68203386825043       -0.29837110359149
H           -1.32688710842506        0.09670184782438       -0.83053866514287
C           -2.10036752556342       -1.87419832887082       -1.23013838262363
C           -3.20919917401700       -0.05447002902573        0.12656131150619
H           -2.70437725627560       -2.63365680865591       -0.73824796868742
H           -2.61490748649990       -1.55205678385915       -2.12907129757765
H           -1.14205224019565       -2.30883973287783       -1.50804926072970
O           -3.19488304385679        0.52546790167602        1.33438203009457
N           -4.19677817474084       -0.08396742526994       -0.65311427694233
H           -5.30634841458077       -1.09508929286072       -1.93094223513551
C           -5.46672960189234        0.50497260722056       -0.27939253422737
H           -5.52253612212917        0.72840081767944        0.79044746020109
C           -5.67775661672446        1.79234149721661       -1.09623016406352
C           -6.52146956596862       -0.51729618919782       -0.63562351392908
H           -4.86528857790764        2.47906619195761       -0.84781188429373
H           -5.58752190136468        1.53965548108299       -2.15614743320979
C           -7.02325868692145        2.48187086838828       -0.85166201725915
O           -6.22818399276676       -1.29814173330487       -1.68479656991557
H           -7.82545964432229        1.76230378146156       -1.04260301657882
C           -7.15192264793015        2.98304483268564        0.58431247651632
C           -7.17715594656092        3.64821731169172       -1.82688431979758
H           -6.35360833900834        3.68626283900591        0.81317572985641
H           -8.10479666147191        3.48867629946597        0.71867346514924
H           -7.10431861075576        2.16114896075948        1.29272928542428
H           -7.12212591500598        3.30296501767450       -2.85684940973596
H           -8.13704953954716        4.13723123677123       -1.68176445679027
H           -6.39028001328670        4.38288248712963       -1.66772634611481
N           -7.58078147211728       -0.58649103276937        0.04301541845088
H           -8.79797507924550        0.30312973236037        1.05344668943053
C           -8.63280202694156       -1.52394552451775       -0.28296421394960
H           -8.74936463817011       -1.65497613093181       -1.36645629149582
C           -8.37640761952886       -2.89258149325504        0.35641284431137
C           -9.94097460026541       -0.95645344541466        0.28822545316163
H           -8.20654008824131       -2.77594217104415        1.42485943196935
H           -9.24232649256369       -3.52964781701020        0.19991121806994
H           -7.50075437715424       -3.35338513914282       -0.09419369616601
O           -9.76493883416211        0.10897879244986        1.06022504343659
O          -11.01559238108363       -1.44173554800420        0.06719242548622
