42
 energy: -62.486133510706 gnorm: 0.000480351319 xtb: 6.7.1 (edcfbbe)
N           -0.95733078174170       -0.27779179914769       -1.37245709347670
H           -0.19319695262572       -0.87680872488056       -1.65973042804649
H           -0.58469482235650        0.40070947963117       -0.71393068708449
H           -2.37926702943055        0.71996812673217       -2.14972329808053
C           -2.02429776751295       -1.05024493930022       -0.73945387776952
H           -2.21576577094063       -1.92029014486906       -1.38226703274191
C           -1.71036567076144       -1.52754383638628        0.67643954400257
C           -3.28680808263320       -0.18659121083019       -0.78257011330636
H           -1.50033767246306       -0.67546199936339        1.31933596243042
H           -2.56379465486226       -2.05768473037304        1.08516897703275
H           -0.84618521374610       -2.18862224472504        0.66995351759770
O           -3.26893183139361        0.75034151205576       -1.73850884833615
N           -4.19783026473178       -0.43040992351876        0.05000637209585
H           -5.08454804741846       -1.97986051014395       -0.70809666759955
C           -5.50222436601240        0.18913252069538        0.14968021353007
H           -5.68561522205073        0.26911784349988        1.22860252804691
C           -5.61468370904262        1.58783363304114       -0.48152331110607
C           -6.52286811016986       -0.79779195712424       -0.39767570373523
H           -4.78682042326783        2.17822730946148       -0.07979745602355
H           -5.46540448056081        1.49969476392913       -1.55827882710733
C           -6.92270425455935        2.34619064109499       -0.23807769512672
O           -6.04348218304948       -1.96034705013162       -0.87464120507183
H           -7.71830719093038        1.84597033307228       -0.79422179586324
C           -7.30845440805544        2.40018940990752        1.23745157349987
C           -6.77821645468718        3.76440871377778       -0.79038407991282
H           -6.49815950730649        2.82307980400138        1.82849499351868
H           -8.18792083845204        3.02623234831692        1.36816671739025
H           -7.53929168875905        1.40894454942923        1.61816811835302
H           -6.49126268204805        3.74208904341608       -1.83898816536293
H           -7.71980586826424        4.30101393821573       -0.70477855482519
H           -6.01835247027278        4.31439699811855       -0.23846902930335
N           -7.75206537178145       -0.52143395354297       -0.36288945689136
H           -9.17418055911450        0.59571771082443        0.04010285259096
C           -8.74335644113345       -1.45192775284300       -0.86019256223337
H           -8.47541622479681       -1.84089876417252       -1.85006314344839
C           -8.95032445702983       -2.63404068192990        0.09547097501232
C          -10.07537921324751       -0.69739332293740       -0.96294224535169
H           -9.18456974014415       -2.26847634953736        1.09355571319296
H           -9.77467918445058       -3.24429436186789       -0.26261435933801
H           -8.04730500204533       -3.23700836174521        0.14068587977402
O          -10.08312697247199        0.45934945239361       -0.31118164079952
O          -11.02885968015884       -1.12971129921474       -1.54889160288561
