42
 energy: -62.486131031456 gnorm: 0.000512533583 xtb: 6.7.1 (edcfbbe)
N           -1.54169215071565       -1.39426981087609       -1.06178913696893
H           -0.82954937639887       -2.09668160493531       -0.90289282066668
H           -1.06697750164090       -0.51267760192187       -1.23896153187626
H           -3.13709455210770       -1.20075922935037       -2.06634815369475
C           -2.41680994561191       -1.25962429745097        0.10393028949136
H           -2.69239689099928       -2.27373449967359        0.42302078958031
C           -1.80409168756763       -0.50942454387432        1.28288661192053
C           -3.70311620307317       -0.59936759919627       -0.37298967234590
H           -1.48969397373723        0.48493598708853        0.97154121585766
H           -2.54838957176716       -0.40233461855250        2.06402523651954
H           -0.94296484815382       -1.04898494544491        1.67207223465635
O           -3.92530169508745       -0.74253809698571       -1.70516861046434
N           -4.42421743831796        0.00979955040315        0.44899329628519
H           -5.73785560715095       -0.22743461793623       -2.16606588734152
C           -5.70103319235886        0.63272294769510        0.17032654571492
H           -6.11224253098602        0.86143146083056        1.15823340258273
C           -5.50504578749246        1.93668413575731       -0.62278250083034
C           -6.69568644868913       -0.28454583637175       -0.51343815376948
H           -4.85546928017710        2.58610878363162       -0.03160159589099
H           -4.97792553308233        1.71373032948384       -1.55565493949790
C           -6.80910406491060        2.67483401669427       -0.94570122383349
O           -6.59895997873601       -0.52026962640779       -1.82964269568123
H           -7.45246762477629        2.01758519390281       -1.54111144082069
C           -7.56499956406924        3.06934129612170        0.32051629489174
C           -6.48979944206520        3.91663000019377       -1.77741329968459
H           -6.91847919881733        3.63367862152898        0.98923327860839
H           -8.41997792868454        3.69090584446341        0.06517825605017
H           -7.93219678346476        2.19180041364382        0.84553952905679
H           -5.96641871105453        3.64847158563255       -2.69292415359250
H           -7.40466705701423        4.43746588799027       -2.04879675688598
H           -5.86176322667391        4.60038096904628       -1.20996786696267
N           -7.59486626018760       -0.79572293761820        0.21035285529153
H           -8.53400053589194       -0.82600928308094        1.75420769352709
C           -8.59218106909266       -1.69073427222132       -0.33427470334708
H           -9.00246297354672       -1.31667286302690       -1.28077376798850
C           -8.02985359011781       -3.09851114258593       -0.56144254504153
C           -9.72891284469389       -1.78269364760905        0.69420505570410
H           -7.57007766280046       -3.46526109073799        0.35436427920469
H           -8.83865613390112       -3.76522186453857       -0.84703475501090
H           -7.28233126139109       -3.07712630131614       -1.35055068643303
O           -9.43591226008978       -1.21277944335835        1.85680930761159
O          -10.77075658335888       -2.33411812649480        0.47082863466422
