42
 energy: -62.486133513093 gnorm: 0.000479359517 xtb: 6.7.1 (edcfbbe)
N           -1.66087376525236       -1.38349624410912        1.11828557850528
H           -1.22157435035203       -0.53793098674336        1.46752902639502
H           -0.93769829937783       -2.08259996134971        0.99657669051457
H           -3.49015175020985       -1.23795906240645        1.85845590544751
C           -2.34786298657266       -1.12326791425736       -0.14464547211676
H           -1.77191145585025       -0.50967087991454       -0.85190765725554
C           -2.71300122219538       -2.45195950441558       -0.81002693830677
C           -3.63383285679402       -0.39315241583237        0.19307430749947
H           -3.29564533241968       -3.06457833001297       -0.12520334834780
H           -3.29929495284096       -2.26832087949731       -1.70546450504866
H           -1.81232072705693       -2.99624750546350       -1.08575938286071
O           -4.14822972856709       -0.68223736445181        1.39528380285575
N           -4.13820726850445        0.39932485799735       -0.64592657117097
H           -5.73646732767155       -0.09686096441838       -2.43192577420119
C           -5.42278340433885        1.02225885309058       -0.36354159140499
H           -5.51463420354741        1.27492011763337        0.69850501090791
C           -5.57305258956446        2.27153065069545       -1.23820745019734
C           -6.46665830644892       -0.02092580703872       -0.67930663756409
H           -4.88341400691070        3.03023323473229       -0.86429531585100
H           -5.25806071001592        2.02806150790427       -2.25664562721588
C           -6.99736323367932        2.83730888154719       -1.26502982945455
O           -6.45787928096418       -0.50828403668147       -1.93666539759549
H           -7.67478327332367        2.06858014490409       -1.65445963683484
C           -7.47352285404639        3.23082563462730        0.13100975246056
C           -7.04847815167726        4.04366429299603       -2.20100675611799
H           -6.77168430260197        3.92347792994107        0.59076825709345
H           -8.44462836709695        3.71650681469819        0.07131098696790
H           -7.57235886371976        2.35584324987341        0.76738069139581
H           -6.72424616024191        3.77220591172160       -3.20335566280143
H           -8.06158758345759        4.43303632747947       -2.26378741067853
H           -6.39929757364734        4.83516756408328       -1.83269073547210
N           -7.23405094876224       -0.43295735404078        0.22794722091145
H           -7.92281923724995       -0.29313804302473        1.90085455845495
C           -8.20334809449632       -1.48013606341956       -0.00609209020058
H           -8.76483592714078       -1.31837964774391       -0.93455584937696
C           -7.53815753025611       -2.86021321344156       -0.06130308941941
C           -9.18035858131150       -1.46346281404528        1.17865598574430
H           -6.93689253544506       -3.01438497623738        0.83269393328576
H           -8.30507906009782       -3.62778302595539       -0.11385853572894
H           -6.89733234684111       -2.92729295188408       -0.93700686560600
O           -8.76933312051852       -0.70839379025896        2.18972184392308
O          -10.20247898024733       -2.09133804201389        1.19354961016626
