42
 energy: -62.486133513147 gnorm: 0.000479719661 xtb: 6.7.1 (edcfbbe)
N           -1.36215154467012       -0.73825027369187        0.91464444023140
H           -0.43185963215306       -1.05577028360357        0.67188713040167
H           -1.67281488973518       -1.28530995737424        1.71297229081200
H           -2.34670474526302        0.86944933098319        1.25673654054310
C           -2.28862043086755       -0.92485749048636       -0.20178832559014
H           -1.78586041496262       -0.56554989595271       -1.10883443068602
C           -2.74680940967525       -2.36589747738858       -0.41471104890590
C           -3.47468993844986       -0.00197235894334        0.03944613209273
H           -3.21491229824699       -2.74541428797360        0.49132577736132
H           -3.47974845281709       -2.39623648293285       -1.21345706847000
H           -1.90202634249529       -3.00186272554778       -0.67181518850802
O           -3.24901321741956        1.00314932854708        0.90086736519972
N           -4.55813935640306       -0.20952182256454       -0.56425330403885
H           -6.66090963572461        0.19430663943276       -2.53457701518271
C           -5.69327142401082        0.67057976095714       -0.34902348762842
H           -5.75546554143195        0.94764496091885        0.71076339254770
C           -5.57156486069657        1.94356773700715       -1.19667461043564
C           -6.90435140141774       -0.17339549004123       -0.67879534123640
H           -4.71651419746780        2.50501058275345       -0.81439046752479
H           -5.33389966871262        1.67288038334471       -2.23175424320867
C           -6.81767345733379        2.83710348224246       -1.16513533407477
O           -7.27108244683409       -0.29356555724285       -1.96753723863553
H           -7.68235757017076        2.26720473620003       -1.52406958623681
C           -7.12170866529353        3.32358749072143        0.24985566546686
C           -6.60775230584592        4.02916444215671       -2.09811470486625
H           -6.24831135054828        3.80800009032819        0.68103758159635
H           -7.93832884755144        4.04152687319068        0.23049228329863
H           -7.41517992230041        2.49754131231639        0.89221170512465
H           -6.40635359381838        3.69879399052901       -3.11524064317510
H           -7.49365638215238        4.65913042447030       -2.11433407687284
H           -5.76629678107297        4.62986656248100       -1.75958082498876
N           -7.45769982815280       -0.81054031056107        0.25612142322227
H           -7.71597780663432       -1.07763418871147        2.01749621130842
C           -8.56084065164972       -1.71603326823773        0.02257705511104
H           -9.32177665414607       -1.27138213304799       -0.63098231457111
C           -8.09134751383190       -3.03851198838878       -0.59394412958069
C           -9.19577052974324       -2.01524760767292        1.38891529405019
H           -7.29957335148347       -3.46932188831342        0.01547365031301
H           -8.92739103086281       -3.73088345876154       -0.63660487077287
H           -7.71076648285982       -2.86507130977389       -1.59691766997022
O           -8.48600612844886       -1.55337366746494        2.41159729194102
O          -10.22101255203353       -2.62493002700677        1.51704977215535
