42
 energy: -62.486133500365 gnorm: 0.000481649140 xtb: 6.7.1 (edcfbbe)
N           -2.07859021614594       -0.74194545192794        1.75544402526567
H           -1.12040243156369       -1.06448309265911        1.69387804629766
H           -2.56325105780936       -1.35289644207366        2.40786163950715
H           -3.10579753035787        0.85675339984575        2.00385467461715
C           -2.73516432084650       -0.80397107875725        0.44924946928180
H           -2.05359973481031       -0.34586859566549       -0.27968905791270
C           -3.10118225470762       -2.21159489418313       -0.01634259191607
C           -3.96204737957952        0.09261513758647        0.52215698998429
H           -3.70439287080005       -2.71355028241180        0.73711678464094
H           -3.68085149258339       -2.14489408785132       -0.93038223734315
H           -2.20307027882948       -2.79849016378086       -0.19772277570647
O           -3.92021453924299        1.02996962157691        1.48907790174863
N           -4.90291818623086       -0.07266823064960       -0.29363709176275
H           -8.30924258866979        1.36061756688960       -1.09675021111278
C           -6.06713006901037        0.77978162691153       -0.26566273667939
H           -6.16659009165780        1.28435730803616        0.70943127434740
C           -5.96866879173539        1.84242500180059       -1.38118548595980
C           -7.27649410409370       -0.11625142191748       -0.42832590260604
H           -4.91768062292641        1.93332986992318       -1.66159466167193
H           -6.49608436946432        1.48601630560118       -2.27031321665881
C           -6.48663882789173        3.22698853589988       -0.96309676139681
O           -8.42627596204752        0.42562560620438       -0.88553225755461
H           -7.41141930437591        3.11701796901957       -0.38026399186338
C           -5.45747575683605        3.93509966403253       -0.08411427140565
C           -6.79552754870826        4.07121839253406       -2.19854325692968
H           -4.56639023687317        4.16485976398354       -0.66448619736148
H           -5.86253178864045        4.86574981534109        0.30645081068220
H           -5.16335246250183        3.30829562204775        0.75406659607761
H           -7.57247859304323        3.61152397938508       -2.80683300223413
H           -7.13395181356670        5.06230786483657       -1.90568250012479
H           -5.90341210080641        4.18161048621062       -2.81087762969915
N           -7.17143744373547       -1.31477150947417       -0.06846438022067
H           -6.11903459255435       -2.56477759999152        0.57448064589180
C           -8.23306313218218       -2.28663138368237       -0.12381668606914
H           -9.13890441578863       -1.93048821002551        0.38300052677265
C           -8.59166673843046       -2.68603629119073       -1.55914357748193
C           -7.70530036811063       -3.53187616132780        0.61210376260848
H           -7.69291018578112       -2.98804386814968       -2.09315643248957
H           -9.28969577147856       -3.51824772713855       -1.53531229671119
H           -9.04693820604959       -1.84570591016944       -2.07666847718284
O           -6.41110802664577       -3.45814341697629        0.89501259594366
O           -8.39330509625173       -4.47685388569546        0.88334769549293
