42
 energy: -62.486123728018 gnorm: 0.000705203307 xtb: 6.7.1 (edcfbbe)
N           -0.98764719916810       -1.12715894167876        0.63753667610874
H           -0.71338636065114       -0.41097018153573        1.30166384087335
H           -0.14463410380191       -1.54606354343564        0.26371551647692
H           -2.62217282361653       -1.76899253122224        1.32669092121149
C           -1.80755927420718       -0.56000473797194       -0.43274972918091
H           -1.50105935115107        0.44768195197471       -0.74183424180653
C           -1.78883828660524       -1.48312599038237       -1.65162412672825
C           -3.23439527876474       -0.48486161851140        0.08880155281721
H           -2.08294369193037       -2.49127740808933       -1.36611316305674
H           -2.48107222145775       -1.11002914381715       -2.40034078180129
H           -0.79073105225218       -1.51945394121347       -2.08284982361618
O           -3.49013968953846       -1.37285870800669        1.09184434161070
N           -4.02914215217177        0.33233943660920       -0.42101728743128
H           -4.94011715195021       -1.87415163676285        0.15278009997068
C           -5.41726057340480        0.57847066770286       -0.09586746650860
H           -5.47052063682625        0.92419508007775        0.94826724639016
C           -5.79581549087924        1.73869886874250       -1.03834567353942
C           -6.35545645308228       -0.61712474523733       -0.18635261169284
H           -4.99984982239750        2.47662575079810       -0.91659947801902
H           -5.73127326003789        1.36013939476261       -2.05959802325619
C           -7.14559065602525        2.43505388787877       -0.85091492857649
O           -5.84884263952556       -1.86145981951779       -0.18284034898549
H           -7.92921303238832        1.78055477531900       -1.23521321483385
C           -7.43796143147714        2.76029867732543        0.61090776086370
C           -7.15921092981311        3.71711058511915       -1.68386971557950
H           -6.64038208533130        3.36926013711314        1.03242780027719
H           -8.36901369419168        3.31660155313029        0.69029237493221
H           -7.53334975901733        1.85173011444404        1.19966028892401
H           -6.93798802572329        3.50004359729372       -2.72601093372454
H           -8.13725050517179        4.18906425094804       -1.63336406358673
H           -6.41773959126736        4.42303778889177       -1.31499520457596
N           -7.59830648821216       -0.41068091590293       -0.27511095541655
H           -9.13625943979499        0.66525965238523       -0.14609419331106
C           -8.52713741588194       -1.52027329405733       -0.34645848389740
H           -8.24024467036862       -2.23881059509820       -1.12311292126465
C           -8.65210866498954       -2.26052486982006        0.99316978828581
C           -9.91169699520973       -0.95072500832796       -0.67388252196559
H           -8.90306031349940       -1.55678794541597        1.78509742597746
H           -9.43825278662596       -3.00663822166869        0.91852372444504
H           -7.71379396371815       -2.75101725911848        1.23761658278733
O          -10.02710085740462        0.34634914886414       -0.41066174576294
O          -10.81767243885260       -1.62155015403949       -1.08423918030817
