42
 energy: -62.486132299942 gnorm: 0.000621077618 xtb: 6.7.1 (edcfbbe)
N           -1.71826646963165       -2.23563430825106        0.14218030833331
H           -1.96284174765680       -2.62653976600348        1.04614782682048
H           -0.72621716305869       -2.38159445861299       -0.00190313687251
H           -3.33414781112868       -2.44960790153748       -0.84252140921406
C           -2.04756372142365       -0.81190147226471        0.08929582962857
H           -1.81810667147991       -0.26621395208091        1.01383813640128
C           -1.31015553808181       -0.15240953485118       -1.07638784907791
C           -3.54490888862486       -0.70906872062064       -0.16635879592497
H           -1.52767804522028       -0.67745551045772       -2.00432019409139
H           -1.62926420499429        0.88127360653483       -1.16908408054682
H           -0.23592692780708       -0.17534619853058       -0.90652192218337
O           -4.05313541512726       -1.78279548492965       -0.81825989009021
N           -4.14108666431166        0.33121198589600        0.18520174413132
H           -5.67445270964444       -1.09487603298506       -1.71259928639919
C           -5.52371045047620        0.70247636711979        0.04196295777862
H           -5.77852863681239        1.19118686293053        0.98767655271765
C           -5.59442190142249        1.74248297893367       -1.09774233494637
C           -6.58040354052461       -0.35792106360373       -0.19879194320568
H           -4.87793761800874        2.53161535525762       -0.86296210942475
H           -5.26325643674924        1.26243436152015       -2.02391819890400
C           -6.98153621123527        2.35368407558681       -1.32084490331091
O           -6.55847636065937       -1.09567120164476       -1.31856300023190
H           -7.69293861065515        1.54977567450840       -1.53854895292163
C           -7.47253033792004        3.11344507619907       -0.09205559168898
C           -6.92616251941690        3.28797816818913       -2.52910058209304
H           -6.74640276509389        3.86783699983238        0.20308900540697
H           -8.41381449889150        3.61048702944700       -0.31357602435810
H           -7.63819784978942        2.43869407285077        0.74266751524201
H           -6.59894749333054        2.75460851861077       -3.41907670740960
H           -7.90818439590652        3.71012041746573       -2.72701920474814
H           -6.23237851867311        4.10529574612180       -2.34334628034415
N           -7.52317888831390       -0.41967186303811        0.64008573804350
H           -8.44279983971268        0.28519661911870        2.02740507627155
C           -8.63316556484522       -1.33055556709717        0.46132432589074
H           -8.99700297624144       -1.33247857845964       -0.57383506428623
C           -8.25904913679466       -2.76372108193647        0.85614038138537
C           -9.76495167893272       -0.85394558311727        1.38211140563079
H           -7.85762987808092       -2.77634533654674        1.86767246787925
H           -9.14558600559940       -3.39021861263335        0.81610375727645
H           -7.50906606661829       -3.15203494545648        0.17160587909313
O           -9.38702374508670        0.09081107821130        2.23565168339302
O          -10.87515734242589       -1.30663358395439        1.34611184101983
