42
 energy: -62.486133513912 gnorm: 0.000479791593 xtb: 6.7.1 (edcfbbe)
N           -1.39143331398104       -0.47330036048603       -1.94078963210821
H           -0.66368928069376       -1.09067916620342       -2.27833952363208
H           -0.94452586970434        0.37794059637302       -1.61145874530988
H           -3.06390950340239        0.23922408314597       -2.49687440047728
C           -2.14859551011248       -1.09140065063775       -0.85439485314722
H           -2.35610417340838       -2.12843782843147       -1.14784359781816
C           -1.43798023299159       -1.08106942769440        0.49774476134780
C           -3.49778093151222       -0.37897698829928       -0.78262346751720
H           -1.20178150426232       -0.05878888195216        0.78677556573958
H           -2.08648223489539       -1.50733827415448        1.25551139702631
H           -0.51583572468573       -1.65660514866834        0.44734541244964
O           -3.82320443289753        0.30994407063789       -1.88023759214328
N           -4.19200637790822       -0.51177685865145        0.26003594838125
H           -5.26509899244070       -2.27374840449035        0.50989173808296
C           -5.51689381781100        0.06325910918528        0.42814765895834
H           -5.65007418449125        0.11561141224018        1.51970066585678
C           -5.74789499808970        1.45395831950267       -0.16988914852659
C           -6.50720596475959       -0.96859899962131       -0.07420428070565
H           -4.82714401342542        2.03112368626649       -0.06060896782389
H           -5.95191329936264        1.34684330007594       -1.23482649312456
C           -6.89741312956730        2.21241591830689        0.50571727325645
O           -6.16321767272191       -2.25397500398722        0.14110399082891
H           -7.72428084185485        1.51475829780436        0.66652170052525
C           -6.46716744708029        2.78540715818335        1.85508376154663
C           -7.37810444143038        3.34235437864734       -0.40308682209582
H           -5.66843780265819        3.51231223803126        1.71988930128086
H           -7.30406605277934        3.28473230555569        2.33786764580155
H           -6.10933178208949        2.00580204938590        2.52333467079786
H           -7.74072782059347        2.95394977746988       -1.35141267888464
H           -8.18699440739924        3.89325437082524        0.07097222859064
H           -6.56437396219598        4.03632805412479       -0.60428870200421
N           -7.57242228779931       -0.61251078279342       -0.63910081394709
H           -8.47833456695169        0.66447694276432       -1.53893395072283
C           -8.53885369668993       -1.56394445355665       -1.13597450114197
H           -8.05860688975041       -2.42205042638179       -1.62342499587610
C           -9.45038363302779       -2.07804390904102       -0.01656570671566
C           -9.40449318303192       -0.82554056920053       -2.16903712068786
H           -9.90365973305563       -1.23931146449509        0.50816178907992
H          -10.23455236005111       -2.69412374276904       -0.44743783837107
H           -8.87214535841396       -2.66848950645479        0.68981395546544
O           -9.19546985607716        0.48466657368193       -2.19337353489559
O          -10.20359997674305       -1.38167758258301       -2.86995697856107
