42
 energy: -62.486133509369 gnorm: 0.000480053524 xtb: 6.7.1 (edcfbbe)
N           -0.74018750341050       -0.14266434716721        0.08316602441511
H            0.15112220895205       -0.32280953001303       -0.36275980417226
H           -0.75558572151001       -0.66145364069509        0.95698799383089
H           -1.90347568526392        1.36844611958973        0.49011760141977
C           -1.84870747365916       -0.56886905639595       -0.76876804314866
H           -1.66479019637902       -0.15189302453455       -1.76831659255395
C           -2.02578887619947       -2.08195667051227       -0.88338628156619
C           -3.09896003425276        0.11941250475316       -0.24053066745649
H           -2.26817156172543       -2.50897003531767        0.08759409298347
H           -2.83081500718119       -2.30898004229924       -1.57445221372475
H           -1.10915230306778       -2.53920701643734       -1.25095036590217
O           -2.87334367192478        1.27067314492223        0.40752857008327
N           -4.22733121083078       -0.40144763081122       -0.43360873419468
H           -5.10741100419337       -1.96412072453323       -0.60327777119812
C           -5.47160073492603        0.21919098182310       -0.01970409594069
H           -5.44804772365053        0.45389801865312        1.05192253167992
C           -5.67077749148191        1.52251346808484       -0.81791979762728
C           -6.54558616894574       -0.82966183518653       -0.27013788827223
H           -4.83280476214997        2.17366690381304       -0.56019770791104
H           -5.58780447762421        1.27281728415873       -1.87890149988885
C           -6.97233234455369        2.29502829373872       -0.59310452859635
O           -6.08180645146343       -2.05949584327513       -0.52728076622628
H           -7.79234011756826        1.72718385948152       -1.03622046647397
C           -7.26248526713227        2.51760737564694        0.88797163140019
C           -6.87929016514564        3.63795860065895       -1.31735661210693
H           -6.42714265440241        3.02515878409210        1.36668254258438
H           -8.15033584674878        3.13421403005463        1.00601386384327
H           -7.43434735289812        1.57149056653257        1.39404809622692
H           -6.66008875146580        3.49234605663754       -2.37259710951365
H           -7.82048738651786        4.17559669784261       -1.23550480386019
H           -6.09306153838590        4.25344739649114       -0.88437957790380
N           -7.77075301377767       -0.52750667650426       -0.27743866657288
H           -9.19402125030513        0.63181314058979        0.00756530715886
C           -8.77581225077143       -1.53604947935053       -0.54193745953569
H           -8.54238251647539       -2.10801020279901       -1.44850745396707
C           -8.93928460168769       -2.51484890977493        0.62818366372525
C          -10.11495477203871       -0.81453672825455       -0.73283335952948
H           -9.14221545656788       -1.96661654539578        1.54650736152282
H           -9.76941066698318       -3.18496586427687        0.42304424320984
H           -8.02901333251028       -3.09509985446181        0.75377045468066
O          -10.11313205724520        0.43532883004179       -0.28268697061905
O          -11.08227406666430       -1.34065428060285       -1.20940973879673
