42
 energy: -62.486133513117 gnorm: 0.000480058422 xtb: 6.7.1 (edcfbbe)
N           -2.07334130292338       -0.76700691276304        1.66166974579429
H           -1.12014068263976       -1.10178556422508        1.58661909755751
H           -2.56476204482993       -1.39241460589019        2.29531233012978
H           -3.07888923225279        0.84378899893746        1.95065917240807
C           -2.73394274398428       -0.77983954705538        0.35602323255666
H           -2.05688481786786       -0.28589592646075       -0.35390908068329
C           -3.08893200726334       -2.16914492835091       -0.16798425114762
C           -3.96333157166075        0.10840234740614        0.47071385607757
H           -3.66932715906729       -2.71531387090053        0.57215896894332
H           -3.68643539057805       -2.06976414375162       -1.06737881559326
H           -2.18544045343630       -2.73235256722308       -0.39264720477578
O           -3.89973168031131        1.03068498806003        1.45150573643775
N           -4.92260716454391       -0.04549955125556       -0.32545189297190
H           -8.40576973277162        1.40371218958270       -0.76097798448093
C           -6.08491769104442        0.80608407364107       -0.26417292714991
H           -6.10877545993188        1.38770103945278        0.67220145851583
C           -6.08772902153947        1.77110445166777       -1.47088720227833
C           -7.30455181464071       -0.08857564304815       -0.25599291770709
H           -5.08986188258869        1.75182791792414       -1.91255389076041
H           -6.77315441497099        1.39734217080839       -2.23641605790563
C           -6.43854181091334        3.21981613815245       -1.10345635703156
O           -8.50218856849810        0.46762429482183       -0.54413382621426
H           -7.30040147682298        3.22895903607933       -0.42196348089134
C           -5.26474554076431        3.89047583805293       -0.39300998216036
C           -6.81365489749444        4.00454868864201       -2.35943689846447
H           -4.42227129907906        3.98683952557429       -1.07455301658872
H           -5.54317889585631        4.88354920981347       -0.04802121545958
H           -4.94182612006541        3.30630993839586        0.46511306021410
H           -7.68502394030282        3.57193782012383       -2.84748752682337
H           -7.04146188610349        5.03761443022272       -2.10772266216436
H           -5.98784467006517        3.99866365412169       -3.06714285068262
N           -7.15818083635194       -1.28944433693782        0.07825889104864
H           -6.03324243625513       -2.53466260801181        0.58089323330678
C           -8.22112877171673       -2.25582118404119        0.17680134883145
H           -9.04886238307612       -1.89178860149536        0.79849518650029
C           -8.77112537483915       -2.66378887617897       -1.19385028086518
C           -7.60101220127306       -3.49609598040358        0.84666331485398
H           -7.95410022813838       -2.97730667740881       -1.84059058322675
H           -9.46595965554565       -3.48970202952946       -1.07007933220919
H           -9.28517709555468       -1.82328440734816       -1.65295841284566
O           -6.28013749991654       -3.42405266415575        0.94883485921993
O           -8.24759945144264       -4.43547210229692        1.21979061450127
