42
 energy: -62.486133519033 gnorm: 0.000478882352 xtb: 6.7.1 (edcfbbe)
N           -0.98713444889575       -0.17472842819621       -1.45129034541752
H           -0.26918884330547       -0.75545450610545       -1.86618959725628
H           -0.54453036290730        0.40295927533683       -0.74193756705916
H           -2.38793403637109        0.97256066498870       -1.98225870012843
C           -2.04141175806137       -0.98623481988519       -0.84672588683536
H           -2.28478536987010       -1.78821741732101       -1.55542437017857
C           -1.66421519715733       -1.59956921373657        0.50068898529905
C           -3.28805585128130       -0.10427017805051       -0.74442841785678
H           -1.42848312559006       -0.81400325750315        1.21593031669301
H           -2.49238112403309       -2.18023626545188        0.89230254749366
H           -0.79749596324349       -2.24845347039540        0.38987715563831
O           -3.25933746746254        0.97694495908239       -1.53138880374267
N           -4.20552153544815       -0.46757172074710        0.03345839358019
H           -5.12410034575088       -2.13981164920054        0.30538067626690
C           -5.50250887393007        0.14517003082638        0.23406780881957
H           -5.57584523155179        0.27882893281063        1.32491472933937
C           -5.81345228996018        1.47841898438551       -0.45095424255463
C           -6.50333509684832       -0.94601746827076       -0.11901585421274
H           -4.92112846545730        2.10374237367117       -0.42726857510211
H           -6.05703365969727        1.28295219695064       -1.49591301129315
C           -6.96295193179623        2.24238843934727        0.22078830721845
O           -6.07295930598898       -2.20170010848672        0.08474542623234
H           -7.74882749616699        1.52986386946678        0.48679565107028
C           -6.48720973353487        2.94307738451706        1.49292408791314
C           -7.53791848828233        3.27176599478524       -0.75052276974186
H           -5.71950362978987        3.67794460145551        1.25715864017726
H           -7.31595746716616        3.45830303324998        1.97272463283681
H           -6.07483451713227        2.23438163065958        2.20702560818753
H           -7.93486360933508        2.79010389851131       -1.64054586060457
H           -8.34264100704925        3.83156798236165       -0.27958795335335
H           -6.76540516751894        3.97475859861806       -1.05599482096819
N           -7.64702335872324       -0.65132560738652       -0.55387577983017
H           -8.68939625498336        0.52695703863699       -1.46414354412335
C           -8.61676389912146       -1.66760837549136       -0.89325776400870
H           -8.15015384858498       -2.55423082109833       -1.34144273032569
C           -9.41963404664236       -2.09940193779874        0.33881614996501
C           -9.58601012583310       -1.04715561537145       -1.91030080737376
H           -9.84727522629933       -1.22609449769852        0.82789594581404
H          -10.22197275081389       -2.76390012080833        0.03008535620919
H           -8.77001546459497       -2.61680888717570        1.04070783397916
O           -9.44104676768269        0.26549572390336       -2.04721284723364
O          -10.40594812538017       -1.68741705555408       -2.50767298759297
