42
 energy: -62.486133502383 gnorm: 0.000481345039 xtb: 6.7.1 (edcfbbe)
N           -0.98069945687734       -0.03942940637681       -1.35846841925545
H           -0.25304277915306       -0.53396391911405       -1.85989641990045
H           -0.57825338923085        0.30379206981285       -0.49090358376457
H           -2.35683336115163        1.25706332394308       -1.73170154166309
C           -2.11083566698664       -0.91952871090512       -1.06805452139619
H           -2.36640764467413       -1.43456073488074       -2.00396170027159
C           -1.84460192820687       -1.95846089866686        0.01871310511811
C           -3.30070172665206       -0.02014806930031       -0.73620466766097
H           -1.65761718319284       -1.46774259594278        0.97140819448341
H           -2.70564710679105       -2.60873936227439        0.12855656382027
H           -0.97892198298240       -2.56313469103484       -0.24527288847067
O           -3.23103828394492        1.19583268617100       -1.29539028598718
N           -4.21105734033140       -0.48158708007441       -0.00577648068336
H           -5.25683186539573       -2.15076787767714        0.64263597901429
C           -5.46621945569865        0.14301267287069        0.36331750364218
H           -5.45551206497052        0.18152297472101        1.46352318747367
C           -5.78941993034685        1.53085658033722       -0.19153868722793
C           -6.49403126454975       -0.90574352622515       -0.02786297520574
H           -4.92066073478413        2.17491992510860       -0.05622337594062
H           -5.97183953326774        1.43468434338501       -1.26230039857625
C           -6.99960291430120        2.18743516829941        0.48590337944054
O           -6.18282071847329       -2.15966752604564        0.34824658227732
H           -7.78869237597105        1.43908996440263        0.59883538980752
C           -6.63574571847948        2.72869897706174        1.86755023061246
C           -7.52428282856838        3.32363078693815       -0.39014544097157
H           -5.85668080425125        3.48425725146741        1.78566094479198
H           -7.50534522765180        3.18526704442457        2.33474327133504
H           -6.27943218305914        1.93859801499031        2.52438601537889
H           -7.84770429075730        2.95114604760762       -1.35894418670595
H           -8.37075284251391        3.81240282095752        0.08651340812590
H           -6.74561408549399        4.06663138231686       -0.55007669039548
N           -7.51054208343620       -0.60137479381385       -0.70217804476548
H           -8.38928472741580        0.58768392545099       -1.73930926018209
C           -8.47648296056596       -1.58889908685830       -1.12444280162597
H           -7.99360440809774       -2.50058056534422       -1.49884666230553
C           -9.43151410336404       -1.96756052877659        0.01278853157634
C           -9.29812644965468       -0.95471711047675       -2.25731457366329
H           -9.89320812700475       -1.07221961241172        0.42472528193568
H          -10.20762189827223       -2.62229245309063       -0.37329584436977
H           -8.88357543306122       -2.47937465984293        0.79999583147920
O           -9.08459545695124        0.34777809968360       -2.39778886931297
O          -10.07078892607509       -1.57583667068100       -2.93267004141778
