42
 energy: -62.486133508844 gnorm: 0.000479702330 xtb: 6.7.1 (edcfbbe)
N           -0.95191235886995       -1.05717871250400        0.11544031417019
H           -0.49589974324007       -0.20001953045648        0.41050333405349
H           -0.24914484029630       -1.65647868609266       -0.30111636876689
H           -2.39008373497315       -1.29528710754769        1.34961613997624
C           -2.02329533414780       -0.77236945144926       -0.83940427581381
H           -1.78555983643654        0.02453887857783       -1.55577773737440
C           -2.38827624219061       -2.04499173101325       -1.60524083522783
C           -3.23667857313115       -0.34781166717008       -0.03403693280311
H           -2.63351646922329       -2.84516122141293       -0.90958865605239
H           -3.24733467157063       -1.85394207660543       -2.24136256605926
H           -1.55419520904477       -2.36488465848883       -2.22601527667132
O           -3.26036652170194       -0.85863184148714        1.22569151241404
N           -4.08706419456622        0.41614932784605       -0.54414365915130
H           -5.07462047387984       -1.04951906979422        1.70161897179465
C           -5.32693279584017        0.80103012273213        0.10651012705421
H           -5.10537224752221        1.20210542701759        1.10940675737047
C           -5.97332210330817        1.88046337319058       -0.76303912626180
C           -6.21628210783241       -0.41187839219685        0.29548204519514
H           -5.22871884368487        2.66273915530355       -0.91944884186764
H           -6.18995519343400        1.43075760772243       -1.73144985049812
C           -7.24900196664041        2.49433131649995       -0.17882147069201
O           -5.94958177295872       -1.23637263963890        1.32363283193847
H           -7.93252467192188        1.68440860768467        0.09187469098205
C           -6.95766225307521        3.32654266466724        1.06866062852150
C           -7.92470007193484        3.36455270258666       -1.23704003227527
H           -6.23346880215443        4.10721653153961        0.84442404947033
H           -7.86950912164275        3.79931617783554        1.42646835826746
H           -6.56437536356243        2.71125232648866        1.87402588201461
H           -8.17779749921175        2.77639264802894       -2.11549836812330
H           -8.83917839398707        3.80223330637760       -0.84362543806535
H           -7.26270166527076        4.17214632730212       -1.54225701880405
N           -7.15822373934417       -0.61510812224001       -0.51631973185927
H           -7.97644312238559       -0.23065298001948       -2.07401654888964
C           -8.03102057976569       -1.76000076798051       -0.41494598773855
H           -7.47808754929909       -2.68364204996606       -0.20121800588950
C           -9.09784095677979       -1.56130994143010        0.66824264645928
C           -8.74246916163898       -1.89935220608884       -1.76949667972083
H           -9.64083433128389       -0.63499295193501        0.48995552691565
H           -9.79615937447209       -2.39298767139105        0.64196659299672
H           -8.62629195274426       -1.51439914261170        1.64668944232829
O           -8.58513711485352       -0.84150447818271       -2.55527795854406
O           -9.39465029526649       -2.85972523940330       -2.07213333002668
