42
 energy: -62.486133506568 gnorm: 0.000480677739 xtb: 6.7.1 (edcfbbe)
N           -0.85655898961345       -0.72729249626512        0.16257488888046
H           -0.51996563885764        0.21239907004639        0.34396095556924
H           -0.07480768484990       -1.27730293195454       -0.17232363302888
H           -2.27943045777249       -0.92426962059140        1.43458646465872
C           -1.93624444912038       -0.70702034915072       -0.82489673443531
H           -1.77835639260470        0.00561490674996       -1.64516405059152
C           -2.13523150375763       -2.10678698486281       -1.40851863205077
C           -3.20006510393035       -0.31308218809100       -0.08675564985469
H           -2.29648431098712       -2.82892070423311       -0.60990734507347
H           -2.99914892785754       -2.10655297569120       -2.06719936500237
H           -1.25836789778444       -2.40619136783341       -1.97860728510831
O           -3.19592239938560       -0.63913448831363        1.23440516736433
N           -4.15659711951390        0.21255347017850       -0.70164748378677
H           -4.99283210388643       -1.48131188350618        1.10682547599588
C           -5.37859024534582        0.60208586587622       -0.02208046112650
H           -5.16910191807325        0.87440243255072        1.02542189912768
C           -5.97652059935743        1.78859200879924       -0.77896725859108
C           -6.29382512541725       -0.60372192481067        0.00098224150995
H           -5.18097635709133        2.51955490604838       -0.93430448127839
H           -6.28920543296346        1.42609441094328       -1.75752415741824
C           -7.15493341948216        2.45762470014960       -0.06268280993280
O           -5.85860574522618       -1.66504093594618        0.70919737746901
H           -7.81675334198307        1.67624973471462        0.32146209159578
C           -6.67985995142995        3.31783942335526        1.10707410470884
C           -7.93982873884248        3.31727514590976       -1.05187866182433
H           -6.02937254043071        4.11460687262854        0.75154884254894
H           -7.52963038112772        3.77132819446404        1.61217960896034
H           -6.13171111325268        2.72771855427329        1.83741250736051
H           -8.34349251000813        2.71079935305277       -1.85864677379273
H           -8.76796965014586        3.81300965763397       -0.55093619653104
H           -7.29545418725428        4.08022226024306       -1.48359079269218
N           -7.39108297843524       -0.58470763112558       -0.61290356281063
H           -8.46754619275153        0.19772286336685       -1.82182458786051
C           -8.29206383028734       -1.71286865073245       -0.62927514480572
H           -7.76305394953234       -2.65802688202337       -0.80430575068948
C           -9.08616674402233       -1.82490179940970        0.67707500689577
C           -9.28416387819554       -1.47449015249023       -1.77898945100764
H           -9.58830132120313       -0.88278482779259        0.88885274359072
H           -9.83069326941371       -2.60963940136229        0.57761377226493
H           -8.41608269421199       -2.06339486543204        1.49921467117287
O           -9.20696846197954       -0.25472358378876       -2.29552484028194
O          -10.06422370519467       -2.30555301500533       -2.15299764159101
