42
 energy: -62.486133515531 gnorm: 0.000479544960 xtb: 6.7.1 (edcfbbe)
N           -1.01592135030911       -0.52446713804919        0.61014075231608
H           -0.09070399589510       -0.77855243554009        0.28635959192416
H           -1.20895951106106       -1.07307814158064        1.44384529312153
H           -2.09492328238475        1.01241421017479        1.02282508609140
C           -2.02444778444852       -0.80550309396893       -0.41040896790191
H           -1.64370416068024       -0.41200761408334       -1.36208669100214
C           -2.36574454071965       -2.28511047351646       -0.57561287666739
C           -3.25771667899426        0.01420549316101       -0.05874561232674
H           -2.72759274619923       -2.69166932400691        0.36651883986391
H           -3.14883216869775       -2.39885690199169       -1.31718713876229
H           -1.48725472669107       -2.84512809721031       -0.89009066935206
O           -3.03725143945539        1.05234508477419        0.76113327577903
N           -4.37680728365600       -0.30344415397513       -0.53880734096648
H           -5.79205025490557       -0.63064295236485       -2.29155501757675
C           -5.55959996198118        0.48312148933764       -0.24485879212123
H           -5.63741200604688        0.68450571294373        0.82886889757108
C           -5.55136564613636        1.81433805022846       -1.01636085628831
C           -6.72620528515650       -0.37151964005520       -0.67686476992082
H           -4.74770798842096        2.43138644960359       -0.61108143749937
H           -5.31626049356185        1.61038634416778       -2.06582583020186
C           -6.87750600977859        2.57818873485412       -0.94037280109507
O           -6.67225732098725       -0.82767548040554       -1.94004785876129
H           -7.67239749568005        1.94244314796359       -1.34668526202768
C           -7.23901582936406        2.94283237388678        0.49674273371961
C           -6.78233889419568        3.84011586158978       -1.79654358984217
H           -6.42635769621705        3.49540251149629        0.96364979560683
H           -8.13074900316896        3.56480857991119        0.51080982825944
H           -7.44141215073984        2.05172045101675        1.08405570761244
H           -6.54344010550248        3.59266111258871       -2.82866848503288
H           -7.72691732358602        4.37808607566298       -1.78488040126654
H           -6.00702091709568        4.49977109743231       -1.41238586321042
N           -7.62643169534192       -0.67932538485596        0.14837412090391
H           -8.53782389773110       -0.31226714836904        1.67111434313345
C           -8.74434685484898       -1.51737750912903       -0.23058009520808
H           -9.11483770110408       -1.27811475942935       -1.23507482250290
C           -8.37158168785544       -3.00309356936879       -0.18181013798644
C           -9.86857534660547       -1.26569220986105        0.78438229390442
H           -7.96482747841107       -3.25118878239751        0.79642187838990
H           -9.25992405696866       -3.60194848546739       -0.36176861177977
H           -7.62561611325692       -3.22175458592237       -0.94161685758333
O           -9.48152133165177       -0.54801567862659        1.83265776503504
O          -10.98083104237703       -1.69432506095272        0.65095558088294
