42
 energy: -62.486133512518 gnorm: 0.000479779604 xtb: 6.7.1 (edcfbbe)
N           -0.94170846734671       -0.11170745197903       -1.28456624555484
H           -0.23022574438426       -0.61844593559591       -1.79715157534212
H           -0.54654872823308        0.14746997432604       -0.38518811991475
H           -2.23332068692331        1.29034839008108       -1.60599498003970
C           -2.13116320583816       -0.93678307820641       -1.08418116795010
H           -2.39092166655770       -1.36891234086574       -2.05941582224319
C           -1.96254576855550       -2.06286331112707       -0.06710508019592
C           -3.27312929734994        0.00817650813421       -0.71662300580091
H           -1.76113523576029       -1.65141355308680        0.91996101214281
H           -2.87235331272789       -2.65222962674361       -0.01829166085881
H           -1.13697150650235       -2.71021238926466       -0.35637555962421
O           -3.11867072325214        1.25380450415555       -1.19010819205773
N           -4.22487994395279       -0.44480849314336       -0.03662412848409
H           -5.31220965550884       -1.98952464894425        1.07166879301073
C           -5.43953272311357        0.23306739169183        0.36964519647206
H           -5.35026643365474        0.38907736929763        1.45554854449457
C           -5.79507389284244        1.55552601780841       -0.31194017538218
C           -6.49156602471447       -0.84080471305959        0.15219835947191
H           -4.93825833334388        2.22588768709886       -0.25102589192527
H           -5.98534245289105        1.34853216430391       -1.36582930569160
C           -7.01284479092370        2.25133432840159        0.30958702057592
O           -6.23090706101420       -2.01235831508887        0.76333661459426
H           -7.79372074321745        1.50620162766945        0.48498456211601
C           -6.65597550593387        2.91028141501665        1.64095574766094
C           -7.55217313918516        3.30323187705650       -0.65800089895055
H           -5.88418468347276        3.66387978111442        1.49591384068578
H           -7.53059514891743        3.39553779784589        2.06823097812178
H           -6.29283378612018        2.18131435314583        2.36167809361638
H           -7.86334081980710        2.84682678052979       -1.59444420374035
H           -8.41018863272874        3.81333093926338       -0.22614367893288
H           -6.78609674699767        4.04499300170470       -0.87445262988177
N           -7.46114364089194       -0.65315243036634       -0.62535736148277
H           -8.29661377016932        0.37223465414871       -1.84901819131657
C           -8.43693232253793       -1.67948544967945       -0.90795014563164
H           -7.96180465711667       -2.64379977247476       -1.12899837323763
C           -9.41902204321224       -1.86846782509029        0.25348160765502
C           -9.22732751533928       -1.21470193630027       -2.14112217136791
H           -9.87427300017811       -0.91500815997224        0.51493750059329
H          -10.19828074976177       -2.56399212765443       -0.04495180080976
H           -8.89420552061850       -2.26171659257680        1.12053921186553
O           -8.98734826603103        0.04712259432451       -2.47530375439436
O          -10.00055491677844       -1.91981683555247       -2.72756789380996
