42
 energy: -62.486133503544 gnorm: 0.000480657653 xtb: 6.7.1 (edcfbbe)
N           -0.78936582330425       -0.01341492530566       -0.81530833661609
H           -0.01046804973053       -0.43592650376447       -1.30579992417890
H           -0.54652704781307        0.02499883020349        0.17075316236151
H           -1.99572321367249        1.49590150004091       -1.01921814723672
C           -2.00975281290405       -0.79661245617814       -0.99746046891196
H           -2.11726880973158       -0.97495180125783       -2.07621672200024
C           -2.02573763883650       -2.13772125924314       -0.26648974960290
C           -3.17673915060491        0.10082605989965       -0.59475296402324
H           -2.00319946987734       -1.98205703641775        0.81003326706326
H           -2.92608613126089       -2.68712248440987       -0.52074481331704
H           -1.16059986844582       -2.73117049525504       -0.55622457963953
O           -2.93517035452905        1.41063008814005       -0.75909984525225
N           -4.22290633835459       -0.43687513986975       -0.15868518177402
H           -5.13139687738399       -2.07209661456949        0.44498719133238
C           -5.47320690663118        0.19282722729871        0.21124235495665
H           -5.43805583246977        0.34521533467201        1.30061174240938
C           -5.84219887495816        1.51115773684170       -0.47484699305844
C           -6.49927875768452       -0.90039377681372       -0.04949447640842
H           -4.96596792572164        2.15733688450517       -0.49975367627684
H           -6.12579144396778        1.28447391178418       -1.50394694391019
C           -6.98429363268218        2.25749944529573        0.22714422860460
O           -6.09245983853180       -2.13418004265802        0.29041960504869
H           -7.75733437587477        1.53537443004470        0.50406252916380
C           -6.49018520225270        2.95778677803108        1.49187774918288
C           -7.59163671125768        3.28571421006432       -0.72544517882004
H           -5.73130809904232        3.69703840514537        1.24308896992230
H           -7.31345570943159        3.46638267897053        1.98821279140494
H           -6.05978743095586        2.25050699133125        2.19705260875925
H           -7.99503583086129        2.80552768764724       -1.61347966156933
H           -8.39762198886596        3.82749527967339       -0.23621961897190
H           -6.83579981662919        4.00432020383144       -1.03596791386597
N           -7.60372100976335       -0.64112279735014       -0.59357496833813
H           -8.64084816094254        0.48741836506400       -1.54954709754955
C           -8.57092378464650       -1.67495920571464       -0.88257834011429
H           -8.09698190742821       -2.57198900143336       -1.30179437007118
C           -9.36252831738146       -2.07495348056969        0.36711153728955
C           -9.54897265352604       -1.09822185383517       -1.91703896642707
H           -9.80767402463325       -1.19295482377606        0.82360813363772
H          -10.15144921170228       -2.76692860388997        0.08639004247067
H           -8.70057742620339       -2.55154092115731        1.08589236743216
O           -9.40009303387390        0.20609038596269       -2.11426324613998
O          -10.37806176741093       -1.76135508798244       -2.47560110358188
