42
 energy: -62.486133489262 gnorm: 0.000481849429 xtb: 6.7.1 (edcfbbe)
N           -0.88206248177049       -0.44400335387616        0.56862229504283
H            0.07011833550068       -0.57773096088958        0.25054151336481
H           -1.07048742597942       -1.14960907547817        1.27550049034944
H           -2.06679783053975        0.98659889101655        1.15035406582989
C           -1.82927285114453       -0.58238974805395       -0.53606158947745
H           -1.45448418930504        0.03674926592271       -1.36230729407767
C           -2.02862956975319       -2.01388309201355       -1.03159529379111
C           -3.13401171819209        0.04867732875339       -0.07473267774959
H           -2.46357499293340       -2.62791254733595       -0.24581618312317
H           -2.69699213195522       -2.02095682603186       -1.88612615793075
H           -1.07396468984799       -2.44371597139178       -1.32888659314140
O           -3.00533966381473        0.98445072717885        0.87510409675426
N           -4.22588017435352       -0.30559306427546       -0.59159321977914
H           -5.21337362399415       -1.59701017304287       -1.45302108053472
C           -5.48016522127678        0.29516651863133       -0.18494733775953
H           -5.49555875872114        0.50816961522897        0.88916244104479
C           -5.67239743271949        1.61157693129954       -0.96502979227515
C           -6.55943104385676       -0.71410853456522       -0.52163377819286
H           -4.83404045892473        2.26145478088579       -0.70304813238653
H           -5.59784793549865        1.38122308542983       -2.03125345416891
C           -6.98426342781967        2.35317396480708       -0.70116480171116
O           -6.17407762795387       -1.72758555853845       -1.30455071221835
H           -7.81601683218953        1.70011976897792       -0.97825298228073
C           -7.13274880890058        2.74197098288674        0.76705192462876
C           -7.03847993266735        3.60184870993714       -1.58069995542201
H           -6.29131284261000        3.35510057790068        1.08400273311932
H           -8.04726503509040        3.31176496815236        0.91134344185394
H           -7.17914922149280        1.86107903969453        1.40105613178244
H           -6.94975779784183        3.33940676420247       -2.63244605884647
H           -7.98195928502304        4.12223066944878       -1.43736150628564
H           -6.22868562974566        4.28303325943383       -1.32658287429515
N           -7.73436166655743       -0.54619781045163       -0.09306923224079
H           -9.01634625578614        0.51095553400598        0.65467934273980
C           -8.79286786281027       -1.47556947406934       -0.42491327376768
H           -8.78371038967276       -1.73824061005529       -1.49062312148582
C           -8.69995430848008       -2.76457628150005        0.39927274692486
C          -10.12541432132552       -0.78682737095116       -0.09830013141685
H           -8.65698953950367       -2.52416802329619        1.45982511080232
H           -9.57662349046834       -3.37682010470128        0.20776299365596
H           -7.80492257237288       -3.31610622247111        0.12294683268132
O           -9.98567887480173        0.35512894602639        0.56424589550267
O          -11.19141167793634       -1.24890138752005       -0.39851983166983
