42
 energy: -62.486133519053 gnorm: 0.000479098477 xtb: 6.7.1 (edcfbbe)
N           -1.62927976515319       -2.01040645696806        0.70863902841634
H           -1.70106001122556       -1.90600504154299        1.71552262594129
H           -0.67442239819610       -2.26913544345840        0.49003758594667
H           -3.43107306781392       -2.55009290607319        0.25020108160607
C           -1.99800018688630       -0.76742985485081        0.03479606892246
H           -1.59810929092419        0.13762971833869        0.51150962416123
C           -1.53168815331583       -0.81310967553594       -1.42132125205773
C           -3.51754886690559       -0.68364332718327        0.05170852321660
H           -1.92167561495384       -1.70236944576652       -1.91295163567440
H           -1.88351023573986        0.07049738984566       -1.94594121331815
H           -0.44530544192858       -0.83864303602399       -1.46966224347004
O           -4.13184415196615       -1.88390037698659        0.09788624957251
N           -4.05452761676257        0.44821912304394        0.02101570672708
H           -5.37935929656474       -1.01425829487727       -1.71855041895230
C           -5.46095960986690        0.75669353239421       -0.02190553425694
H           -5.70198922378380        1.19850992171620        0.95054551842202
C           -5.64731573813811        1.83024849187644       -1.11483587018764
C           -6.44255736173034       -0.36628568610208       -0.26692974751975
H           -4.89151781651809        2.59749472555542       -0.94097284546217
H           -5.43714514341042        1.37611063756818       -2.08775879835251
C           -7.03848365638146        2.47045949275101       -1.15252735243671
O           -6.25080063478882       -1.16500890042984       -1.33322682801690
H           -7.79018956981163        1.67977851806297       -1.24575073518720
C           -7.33084905557594        3.26873109066694        0.11480201372372
C           -7.13942186531230        3.38093560827070       -2.37589692878901
H           -6.57496236903214        4.03752059895498        0.26110072296445
H           -8.30172316946110        3.75124630710574        0.03510488314043
H           -7.34900033347370        2.62520596473737        0.98960906743308
H           -6.97121184533411        2.82065082590693       -3.29303393342592
H           -8.12596314224007        3.83405826972128       -2.43021897319749
H           -6.39904883184535        4.17615278272495       -2.31791882096144
N           -7.49113554477198       -0.40217945238715        0.43326207160540
H           -8.65072700455569        0.42103663312225        1.54849141806927
C           -8.53134365768005       -1.37483778778055        0.18064276358432
H           -8.72320070688921       -1.49941650501573       -0.89296491999552
C           -8.17757329591881       -2.73966231465342        0.78087960027951
C           -9.81043057820397       -0.85874488696434        0.85404432743996
H           -7.95449357327666       -2.63116978649559        1.84037055132462
H           -9.01932546774560       -3.41554937728464        0.65995906968259
H           -7.30541432707037       -3.14775746724092        0.27630738655141
O           -9.60828146729785        0.19974950059177        1.63044262617867
O          -10.88372217542304       -1.37334880253867        0.70442422533039
