42
 energy: -62.486133524673 gnorm: 0.000479165954 xtb: 6.7.1 (edcfbbe)
N           -0.70767015460864       -0.05902120092779       -0.25191589361093
H            0.13279520114914       -0.35908609203040       -0.73068710677061
H           -0.61873080628669       -0.32847217594692        0.72401578072067
H           -1.82781453814317        1.51133758742168       -0.16304808317607
C           -1.89594876254781       -0.68098131815854       -0.83362169722780
H           -1.83036018198943       -0.54042636664530       -1.92138077012938
C           -2.04972196489135       -2.17007440775097       -0.52998280381646
C           -3.09308500653488        0.14164628519781       -0.36810492201448
H           -2.22147267547582       -2.32352891573273        0.53299233876942
H           -2.88925360038731       -2.58158522181047       -1.08055608970062
H           -1.14757435641214       -2.70379566182984       -0.82339779644522
O           -2.80066283436577        1.42094607536739       -0.09548342123159
N           -4.21373710524187       -0.41494026637082       -0.25668031057144
H           -5.08383080610674       -1.94116680587372       -0.53555764629590
C           -5.47314971961779        0.22559128570449        0.06626953363573
H           -5.51375893640174        0.42187693792587        1.14461798744389
C           -5.64998348134414        1.54908007409362       -0.70181826675193
C           -6.53662569156421       -0.81656391853799       -0.26958084979109
H           -4.83963857225479        2.20834661930246       -0.38826244144385
H           -5.51178138691354        1.33215864048100       -1.76461539383589
C           -6.97093363121619        2.30016054810426       -0.52066852188559
O           -6.06322998441305       -2.03427989702715       -0.55594526663238
H           -7.76541287395989        1.73286006116704       -1.00842250676103
C           -7.32477481778582        2.49354915671911        0.95074472995012
C           -6.86131557502046        3.65749728221296       -1.21537883334010
H           -6.51596749849352        3.00229785400002        1.47195519355131
H           -8.22353237154118        3.09852875705990        1.04254323223126
H           -7.50617527589975        1.53732460345272        1.43401588476290
H           -6.59891579294092        3.53378525866099       -2.26351618598532
H           -7.80939472758566        4.18645709944461       -1.16117325437960
H           -6.09775437840322        4.27051682023880       -0.74043670144195
N           -7.76245040588260       -0.51709265657964       -0.28729002243640
H           -9.19188765606695        0.63029172133338        0.01158986264279
C           -8.76049518057055       -1.51488655249110       -0.61373684112527
H           -8.51065433202723       -2.04706585760669       -1.53989572985765
C           -8.94316393341511       -2.54333985720020        0.51024074359290
C          -10.09819678941574       -0.78837917444748       -0.79706488656240
H           -9.15602151249108       -2.03469747944663        1.44885268478917
H           -9.77353189373927       -3.19953621206313        0.26497739187248
H           -8.03736810292355       -3.13312917401847        0.62254501413594
O          -10.10607747348928        0.44336731816086       -0.29985936438494
O          -11.05693167277140       -1.29759665606919       -1.30834376083491
