42
 energy: -62.486132363157 gnorm: 0.000608590147 xtb: 6.7.1 (edcfbbe)
N           -1.60867434355816       -0.90564465074999       -2.05459254000921
H           -0.83161554805381       -1.52405891571753       -2.25142507810621
H           -1.26343681867829        0.04864212630213       -2.11191785665056
H           -3.42360177964566       -0.59223820733703       -2.58079428044120
C           -2.15943141622804       -1.15659362418434       -0.72450612787051
H           -2.25311598618672       -2.24438408335597       -0.60986379675648
C           -1.32537686679458       -0.59798122843944        0.42689719990696
C           -3.57310744918109       -0.58639354210295       -0.70966616716413
H           -1.19137881413924        0.47494559458314        0.30352296202647
H           -1.84078276951116       -0.77092802806400        1.36554403962642
H           -0.34820768868225       -1.07565868259625        0.45661523301643
O           -4.10774241239076       -0.36834009371735       -1.91604662182826
N           -4.14739803754474       -0.39265519075134        0.39759089942059
H           -5.18527612916169       -2.23070692542727        0.56139509871574
C           -5.50428323647001        0.12596110666074        0.45689618353282
H           -5.68737488912179        0.28811433237814        1.52967455344603
C           -5.71195096557471        1.45023725201289       -0.29042132455030
C           -6.47793313095595       -0.94771594042081        0.01290591185383
H           -4.77455779921855        2.01033463168508       -0.25467959833779
H           -5.93258630503387        1.22761548134549       -1.33429815515221
C           -6.83265724968849        2.30953633736490        0.30730993280144
O           -6.08556822406138       -2.22430203516787        0.20146490408933
H           -7.66753661975461        1.65338718949831        0.56907360204989
C           -6.36153335090032        3.03184212395139        1.56834920158938
C           -7.31302222828315        3.32931541046548       -0.72374080756992
H           -5.56359564208230        3.73186544417949        1.32781578840183
H           -7.18188148094604        3.59001445761971        2.01347945297490
H           -5.98741197126806        2.33070072627730        2.31040120196571
H           -7.70114557537753        2.83500586209505       -1.61072229798936
H           -8.10327933936624        3.94840623166207       -0.30606613152749
H           -6.49260881777918        3.97898051681041       -1.02258957676237
N           -7.60501830448590       -0.62878332422926       -0.44510186601235
H           -8.59072405774502        0.60102747995895       -1.33458056194748
C           -8.57331353613454       -1.61683624784841       -0.86082928365535
H           -8.10109312119512       -2.47081031531452       -1.36314566498645
C           -9.39331879542998       -2.13259847567345        0.32628214779796
C           -9.52569730161098       -0.92770571680351       -1.85037454824148
H           -9.83181673017800       -1.29571789912921        0.86616670291148
H          -10.18815774057932       -2.77602786137823       -0.04022893365542
H           -8.75386033851271       -2.69516595278800        1.00199584657874
O           -9.34483596076948        0.38440956692475       -1.93347873578583
O          -10.36028248655448       -1.52112066295906       -2.47537582283675
