42
 energy: -62.486133512558 gnorm: 0.000479772304 xtb: 6.7.1 (edcfbbe)
N           -1.43169325669278       -1.74972546915857        0.81326782223619
H           -1.35238258664320       -1.40785175857005        1.76522694857951
H           -0.51766726458251       -2.07368855186836        0.52041247634708
H           -3.26530127324507       -2.35609106523410        0.78280616919057
C           -1.92024243182673       -0.69825943932140       -0.07523778382119
H           -1.48339333330436        0.29115921824688        0.11691829960620
C           -1.65240627115556       -1.08648027617022       -1.53070555223345
C           -3.42529763535489       -0.60244561738100        0.12746285077013
H           -2.08425884920444       -2.06180938885867       -1.74655427397167
H           -2.08917584508826       -0.34465930143011       -2.19318845851474
H           -0.58204212427801       -1.13288116766891       -1.71776944248229
O           -3.99583383555502       -1.73903562349491        0.57444866093285
N           -3.99743389100314        0.48701870954184       -0.11966786690086
H           -5.15152593307224       -1.23881723681926       -1.45926951845674
C           -5.41468022731062        0.74526622632184       -0.05537333053910
H           -5.61584540084975        1.20776668574836        0.91652731996679
C           -5.71766915647869        1.77190645369749       -1.16911869590497
C           -6.35210600019526       -0.42951942080081       -0.21068198647919
H           -4.95347820550854        2.54701522671804       -1.09613646966909
H           -5.59219092947158        1.27567123462030       -2.13555646230604
C           -7.10853505301554        2.40875103572213       -1.10980176334135
O           -6.03962183827196       -1.38258819017019       -1.10934647776470
H           -7.86065856793364        1.61402492570699       -1.09364106495984
C           -7.28739527353193        3.27072137731816        0.13697085185134
C           -7.32941394448728        3.25551956975076       -2.36279268223718
H           -6.53839601535645        4.05942968421843        0.16348386458080
H           -8.27214991349192        3.73109113813450        0.13296316230115
H           -7.19983359651640        2.67742103396139        1.04261208506530
H           -7.24429751731453        2.64875591357518       -3.26155562043863
H           -8.32023301528676        3.70225644205752       -2.34658479084293
H           -6.59286049950684        4.05463664447925       -2.41626432169774
N           -7.48234870642624       -0.36189105425976        0.34527649388741
H           -8.76518013803312        0.62809798750786        1.16447232940677
C           -8.49337579398540       -1.37168510804416        0.12814872722573
H           -8.54959886930857       -1.67586976752507       -0.92529286058790
C           -8.23753701392801       -2.61397932636252        0.98818218085108
C           -9.84057177072875       -0.76120426757866        0.53891211065217
H           -8.15087577983591       -2.32826496964823        2.03458313683026
H           -9.06575769919997       -3.30766523228974        0.87418645165115
H           -7.31339902518595       -3.09361882854890        0.67544435636106
O           -9.72653944213883        0.40991982831846        1.15488892095191
O          -10.89298733864245       -1.30042387870046        0.33627870991294
