42
 energy: -62.486133505044 gnorm: 0.000480706211 xtb: 6.7.1 (edcfbbe)
N           -1.14932258398386       -0.53646741901083       -1.62256753383591
H           -0.35383298032436       -1.13676108211964       -1.80075760771861
H           -0.79071105575884        0.36212114004430       -1.31123403271319
H           -2.74836505582115        0.01967432202577       -2.46824589801204
C           -2.02070561122981       -1.10518004956245       -0.59517401089280
H           -2.14155034630088       -2.17265169700858       -0.82064408761472
C           -1.50914582170040       -0.94938771887255        0.83456114516610
C           -3.39289854829116       -0.45854798093378       -0.76376977403592
H           -1.34710152386607        0.10262499626508        1.06101160284967
H           -2.25057476165031       -1.33693281780273        1.52471931746109
H           -0.57349303846393       -1.48882276233799        0.96587352273801
O           -3.60105693193459        0.07702380770072       -1.98770205648325
N           -4.21214748499555       -0.51911845829897        0.18524336111786
H           -5.20503970324731       -1.55067598661199       -1.58295560754189
C           -5.52954146999812        0.07079264593978        0.22401106225069
H           -5.79385502523313        0.09301884893783        1.28594812496966
C           -5.55695512240859        1.51044517482046       -0.33522497266366
C           -6.56320140344575       -0.78672579190411       -0.47903894461963
H           -4.72155715765215        2.04401081303643        0.12620589985626
H           -5.37417437270244        1.47005595831628       -1.41067178936694
C           -6.84933340370922        2.29081267762334       -0.08607239080159
O           -6.15211290316141       -1.65259592308725       -1.42168619327238
H           -7.67857574424144        1.74589112039441       -0.54459424672300
C           -7.14158749003117        2.46843380218371        1.40134359576203
C           -6.74413899931540        3.65775782874390       -0.76211131541842
H           -6.31073507447893        2.96869258973942        1.89523741239553
H           -8.03446144164659        3.07403376892046        1.53465776908456
H           -7.30892276658164        1.51134872734824        1.88733490106199
H           -6.55654318079396        3.54901417589168       -1.82786233274906
H           -7.66947518141964        4.21350399825228       -0.63378880541302
H           -5.93238612882697        4.23793283551953       -0.32741450054871
N           -7.77998911174502       -0.59945723053118       -0.20557593057581
H           -9.10240415060211        0.35426071076299        0.62789414794683
C           -8.83069794861613       -1.32372649731210       -0.88463004446871
H           -8.67036155959708       -1.35076483440858       -1.97020599504553
C           -8.95959886623091       -2.76199115793747       -0.37035398403420
C          -10.14901847118142       -0.59129380661706       -0.59538791801647
H           -9.07620957729785       -2.76001746608623        0.71159598171081
H           -9.83085994643008       -3.22753352623704       -0.82241900018404
H           -8.06940056696460       -3.32886687876887       -0.63038000102161
O          -10.04960008516852        0.32673581712240        0.35866422240478
O          -11.17454866993475       -0.84269240761582       -1.16489796953554
