42
 energy: -62.486133512751 gnorm: 0.000480625684 xtb: 6.7.1 (edcfbbe)
N           -0.98194369342408       -0.49749863479790        0.21475030002453
H           -0.16599383620577       -0.99572075596587       -0.11970411420830
H           -1.02217436873158       -0.62056949060980        1.22302377403644
H           -1.84918199349583        1.20381567921477        0.05572206724613
C           -2.20235953113622       -1.02430861770530       -0.39495057305156
H           -2.01793208186953       -1.09771101194763       -1.47518934415638
C           -2.64599574050837       -2.38607886006262        0.13345858648561
C           -3.28858505199366        0.02985469322013       -0.21018201024487
H           -2.79261189238052       -2.33882972095322        1.21051342021815
H           -3.58973382766201       -2.66082074242154       -0.32499051313457
H           -1.89844666033787       -3.14429456500967       -0.09129163669196
O           -2.82388355793443        1.27606212059160       -0.00846060692545
N           -4.49138908838052       -0.32502747260321       -0.25774006510998
H           -6.11293314787593       -0.09457620921343       -2.41447442040139
C           -5.62526804047844        0.56845712436639       -0.14521325175655
H           -5.79300199377714        0.77075098126821        0.91828733795932
C           -5.50284181714934        1.89708793866107       -0.90931037570710
C           -6.79699156628632       -0.25261120789522       -0.64222844295255
H           -4.75122899278221        2.51109176454225       -0.41290794161319
H           -5.13441736166411        1.69965460059696       -1.92245438313583
C           -6.81971462818627        2.67881032736629       -0.99208744178364
O           -6.86792826503272       -0.49385660974878       -1.96503728274194
H           -7.57240295346998        2.06641725576541       -1.50182174401247
C           -7.35099905233925        3.03274766115859        0.39467415408082
C           -6.59936990643389        3.94940323631194       -1.81211589699437
H           -6.59120256791475        3.55796477563957        0.96961993416722
H           -8.22127983590581        3.67888493176058        0.30657197506644
H           -7.64886252829362        2.13980115715690        0.93783757644344
H           -6.23576256064390        3.71182783053675       -2.80980592135029
H           -7.52960584135955        4.50329159085125       -1.91174471929172
H           -5.86848447989837        4.59083642385562       -1.32439758708228
N           -7.60169714701316       -0.74134906363467        0.19319745970783
H           -8.31345923542028       -0.76842495541184        1.86086531884456
C           -8.70101714642662       -1.59048780585536       -0.21048025923449
H           -9.21388257763481       -1.20354732242971       -1.09983118386597
C           -8.22997261216717       -3.02149599344617       -0.49348101249371
C           -9.69548936264361       -1.63213415135111        0.95851719577053
H           -7.68235178291159       -3.40669644050719        0.36414801084818
H           -9.09344530608541       -3.65366456814920       -0.68058108733361
H           -7.57753317118620       -3.03009577568341       -1.36266827416952
O           -9.21358270324914       -1.10652472082017        2.07898853306924
O          -10.79123334487215       -2.11246122848800        0.87190949968429
