42
 energy: -62.486133521028 gnorm: 0.000478384112 xtb: 6.7.1 (edcfbbe)
N           -1.93343134136289       -2.25099881670985        0.65380012232425
H           -2.09137538184686       -2.28831301653895        1.65548438888758
H           -0.98303082805495       -2.55413547690898        0.47747281717509
H           -3.71518379538228       -2.56637334451520       -0.01108680635993
C           -2.14872467390450       -0.89650396924937        0.14905966898779
H           -1.73599245649769       -0.10791998163604        0.79251633228080
C           -1.54611589052998       -0.76508568774519       -1.25028201469719
C           -3.65336150053149       -0.69188488430475        0.04793337738264
H           -1.95771465259449       -1.52660157229010       -1.91009431703690
H           -1.77189248903889        0.21793082966766       -1.65331817983419
H           -0.46600038058515       -0.88763121958249       -1.20975107452909
O           -4.35242167024161       -1.83094226155114       -0.12213832084407
N           -4.10625586412055        0.47495311123380        0.11715178720324
H           -5.62207848329864       -0.60649426640530       -1.95460561086993
C           -5.48791453689410        0.87128506322636       -0.00466333649026
H           -5.75620028595609        1.30830044007390        0.96299231452285
C           -5.55083451021379        1.96916319437248       -1.08433987488720
C           -6.49956454270090       -0.21268501273165       -0.30192999316176
H           -4.87350779260394        2.76621365658591       -0.77482582679938
H           -5.16310454888737        1.56425053221043       -2.02465261323132
C           -6.95246153647839        2.53974322053813       -1.32546462314155
O           -6.43117348972764       -0.84736700446996       -1.48791104604952
H           -7.61853782942595        1.72682269408463       -1.63557774337342
C           -7.52939757605492        3.17862693059995       -0.06531286966938
C           -6.88800437673502        3.56688258469849       -2.45522476164370
H           -6.84242557709012        3.92237579148509        0.33262278626391
H           -8.47177081861481        3.66987020208937       -0.29534886036630
H           -7.71938778801724        2.42956325176749        0.69816568489203
H           -6.49487832214804        3.12012618826245       -3.36607551325462
H           -7.87926780005343        3.95863981878191       -2.66878469982338
H           -6.24387615801730        4.39734928067497       -2.17413431433209
N           -7.43346831017799       -0.40141229001738        0.52391709975035
H           -8.39404009979934        0.10451726867516        1.97723491647169
C           -8.47196086056438       -1.37718055211444        0.27469811453120
H           -8.82397377853883       -1.34510001337006       -0.76394077772104
C           -7.98837655599019       -2.79697113568911        0.59146412204953
C           -9.64130076048464       -1.04563169452289        1.21042874381560
H           -7.62695020755515       -2.84436829398857        1.61683873712643
H           -8.81172679345625       -3.49495639835422        0.46960811870331
H           -7.17747230496797       -3.06546941725811       -0.08076737092073
O           -9.32620549171811       -0.16343060409602        2.15306374196099
O          -10.72482920794983       -1.55118283369528        1.11471249640188
