42
 energy: -62.486133510887 gnorm: 0.000479486487 xtb: 6.7.1 (edcfbbe)
N           -1.72164300763275       -0.79942680487385        1.45974466890705
H           -0.81325935569858       -1.22494465971131        1.31694931164652
H           -2.18705676472162       -1.32060301304974        2.19846305535396
H           -2.54776070318082        0.95056173334117        1.65340535633687
C           -2.52386706784661       -0.86743074304605        0.23738519515890
H           -1.90049456909348       -0.47290524956664       -0.57700611315053
C           -3.01358122802289       -2.26386660946653       -0.13459197751535
C           -3.67542407779275        0.10971334496991        0.41068028114306
H           -3.57286653443929       -2.70143459283098        0.68864524404420
H           -3.66905010982053       -2.19571978044748       -0.99544928321553
H           -2.17078462810629       -2.90994419345438       -0.37190510179434
O           -3.41308566637445        1.14090069932011        1.24019503570452
N           -4.75389558597193       -0.07251211338788       -0.20594281311307
H           -8.13697066113826        1.69980382027800        0.18801021789044
C           -5.84000396291201        0.87324096803470       -0.10303073633150
H           -5.72873238962838        1.53856300789032        0.76767115336486
C           -5.80734372858208        1.69916347304167       -1.40904512773006
C           -7.11112168785317        0.07430628805140        0.06460028731013
H           -4.79118989758776        2.09331169757747       -1.49265964705633
H           -5.95307855997750        0.99760229667001       -2.23306970617860
C           -6.78552514119042        2.87024750944237       -1.55953979951137
O           -8.27946911050213        0.74564423936172        0.19372535349580
H           -7.81520973365943        2.49618958508043       -1.59330840225722
C           -6.64437309557587        3.89154355754484       -0.43064223337188
C           -6.51753431923007        3.55533156882188       -2.90094283339336
H           -5.62101901477815        4.25828890433324       -0.38764460927259
H           -7.30318689893392        4.73944518611543       -0.60635691744673
H           -6.89030826825848        3.47419063441949        0.54440824868307
H           -6.62132522637118        2.84854203778370       -3.72066506476719
H           -7.22084161130256        4.36958817489120       -3.05939954886539
H           -5.50948958776531        3.96331554004264       -2.92485115784882
N           -7.02519694932499       -1.17207524202167        0.18707519832886
H           -5.94978666408512       -2.56122312343471        0.36997509301382
C           -8.14211233482881       -2.04511069517208        0.43380169784009
H           -8.80050143777433       -1.66203887901192        1.22432368144650
C           -8.97413339025669       -2.28848226220370       -0.82955752382933
C           -7.53792096626984       -3.38571412444142        0.88955018482174
H           -8.32809109502557       -2.62398736966268       -1.63821638811031
H           -9.71922320718688       -3.05277345619846       -0.62707716230373
H           -9.47026282576250       -1.36877770054613       -1.12923498200902
O           -6.22296110184187       -3.44576428397479        0.72943467244104
O           -8.19650909422180       -4.28678500794724        1.33102802191503
