42
 energy: -62.486133515560 gnorm: 0.000479073692 xtb: 6.7.1 (edcfbbe)
N           -1.99137581700523       -1.20761829838949        1.72527065602168
H           -1.06219310675886       -1.60412790152282        1.64979453681495
H           -2.57293505439139       -1.88876119045328        2.20720517307015
H           -2.90352088345738        0.41474137146965        2.22233784294106
C           -2.55089434682760       -0.94310160878043        0.39875021351740
H           -1.79500902462594       -0.37528168956954       -0.16189449805618
C           -2.93475053224154       -2.18963335689279       -0.39469089218279
C           -3.73181332952086       -0.00447758969656        0.59270273938550
H           -3.57964320413158       -2.83343582899043        0.19910705574231
H           -3.47124546709951       -1.89179773285936       -1.28888676382786
H           -2.04413788184024       -2.74823099708966       -0.67562557308689
O           -3.68007811687160        0.73327877950361        1.71945932440427
N           -4.63865735275626        0.05413443894990       -0.27464107306488
H           -7.99914807481798        1.78532875784928        0.39399861539681
C           -5.74117202462428        0.97739154923474       -0.13919402151233
H           -5.60807925425507        1.66103576421140        0.71395087031856
C           -5.78591779926559        1.76613656940209       -1.46535254497291
C           -6.99496449036197        0.16868605054111        0.09672574804687
H           -4.79082966141344        2.19598736855835       -1.60279515540798
H           -5.93538471960312        1.03413181433848       -2.26103156154953
C           -6.82342414378366        2.88589295017143       -1.60114676964111
O           -8.14455338175128        0.83212414313605        0.35748548560234
H           -7.83302781958408        2.46540948066420       -1.53284592268197
C           -6.64610252713717        3.97154320089431       -0.53911169559832
C           -6.69050205253265        3.51034814378362       -2.99104745907200
H           -5.65181223072986        4.40666554555710       -0.61493631260221
H           -7.37642129896842        4.76461243778570       -0.68607115962856
H           -6.76586600446154        3.59008421351765        0.47361910724716
H           -6.83253334483254        2.75941206634505       -3.76434633749464
H           -7.43489972757153        4.29092952061167       -3.13021203315461
H           -5.70392083615169        3.95068109589865       -3.11740707469675
N           -6.90800618682950       -1.08370748293487        0.13467535383313
H           -5.83934434445090       -2.48394602369915        0.16572155032825
C           -8.00821010309681       -1.96218538568947        0.43621543119118
H           -8.60646928894655       -1.60117928471246        1.28276135876186
C           -8.92874030411389       -2.16648078601114       -0.77124400024890
C           -7.37678543140733       -3.31529967042808        0.80719496753831
H           -8.34392188257224       -2.47788828052169       -1.63438214072389
H           -9.66023878760624       -2.93543386433965       -0.53892892933838
H           -9.44222095990421       -1.23757171368587       -1.00654783879279
O           -6.08090310952724       -3.37706131274424        0.52673012427930
O           -7.99653735432084       -4.22336092295938        1.28756848730197
