42
 energy: -62.486133506297 gnorm: 0.000480869511 xtb: 6.7.1 (edcfbbe)
N           -1.94397455529893       -0.40860167780839        1.61481519017423
H           -0.98921027421692       -0.73505447153717        1.52671618980147
H           -2.37345304282776       -0.92845339049791        2.37566509576321
H           -2.95662168012501        1.22178040912816        1.69786833649338
C           -2.69166014163760       -0.64532567140393        0.37933809548978
H           -2.07439722483542       -0.27106461659256       -0.44836388756032
C           -3.05431418307617       -2.10488726092618        0.11873288959373
C           -3.92819354523225        0.23858758661305        0.43130381307370
H           -3.59791847222094       -2.51637298546106        0.96598821322045
H           -3.69032920539597       -2.16419044223691       -0.75719633262961
H           -2.15557953437614       -2.69614244491869       -0.04456705831846
O           -3.81430194710227        1.31505072886646        1.23536682111831
N           -4.93853804276608       -0.05903944770296       -0.25247287451603
H           -8.44622620358191        1.37064399338781       -0.62126520440187
C           -6.10877417273897        0.78204442841748       -0.26171630114351
H           -6.12454402130287        1.45978841814925        0.60825166733752
C           -6.15192927000542        1.61544939736010       -1.56460765372977
C           -7.32025077751168       -0.11508846779350       -0.14996564077945
H           -5.17829672032746        1.52605647466374       -2.04936130630221
H           -6.88309618046443        1.17887477589022       -2.25024119359540
C           -6.46083662776995        3.10230986899519       -1.34131260206526
O           -8.53258750696817        0.43970890803243       -0.37994077280896
H           -7.29129488827564        3.20251724628352       -0.62872981178284
C           -5.24592642956683        3.82143846705128       -0.75971073071829
C           -6.88109586674144        3.75421680172904       -2.65750639566180
H           -4.43587146888832        3.83085130139183       -1.48588685851527
H           -5.49430120290397        4.84999940028354       -0.50852943599815
H           -4.89034630119784        3.32353831752539        0.13868639136794
H           -7.78346755269472        3.29246614708672       -3.05373810533829
H           -7.07595106539301        4.81388606879098       -2.51055655455686
H           -6.09097043044346        3.65069976794049       -3.39765697576448
N           -7.15892549599719       -1.30987254938933        0.19714322148906
H           -6.01852063480503       -2.55869118662573        0.70205001802376
C           -8.22582643402124       -2.26007261505377        0.37882397851620
H           -9.02433279388300       -1.86274474585816        1.01826851427785
C           -8.83555374901735       -2.71335277385305       -0.95180299770765
C           -7.59281536397957       -3.48098617563760        1.07045464534898
H           -8.04883469216966       -3.05837783610986       -1.61966834151240
H           -9.53129984154762       -3.52732891990478       -0.76862336460544
H           -9.36166451715052       -1.88554374892407       -1.42028066366833
O           -6.26830533511912       -3.42586407575704        1.11499364999831
O           -8.23585386519364       -4.39487857716151        1.50816903663846
