42
 energy: -62.486133505776 gnorm: 0.000481289048 xtb: 6.7.1 (edcfbbe)
N           -0.89717012971016       -1.07851296633677        0.38239798772251
H           -0.57854731417456       -0.34474768921607        1.00666792697416
H           -0.08452470247391       -1.47335500772311       -0.07618975228571
H           -2.43492418000124       -1.78084395142878        1.21771230475823
C           -1.84463392127665       -0.55131122294615       -0.59944276620219
H           -1.59809848517366        0.45424941132146       -0.96346953608406
C           -1.94503572461281       -1.50547247068768       -1.79029534226700
C           -3.20711265730545       -0.49812820295840        0.07393610056562
H           -2.19751473721422       -2.50764035437850       -1.44936638466932
H           -2.71680792653382       -1.15825204220916       -2.47060707123844
H           -0.99778308841845       -1.54594656851396       -2.32376215642069
O           -3.33003404179445       -1.39292453132263        1.09584754814380
N           -4.04931044565932        0.33084627315394       -0.32573217994912
H           -5.01842557126898       -1.75815229509006        0.99102998622369
C           -5.42195283227249        0.53234938514585        0.08075024484682
H           -5.41912498786378        0.84178660780363        1.14147263049053
C           -5.97175949685023        1.68101429753262       -0.77359761738271
C           -6.31629771814323       -0.69618501550897        0.03773916436865
H           -5.14549285695185        2.36935298720517       -0.95623126864060
H           -6.28052414023589        1.26963998181385       -1.73416224569658
C           -7.13698843951632        2.44257446358243       -0.13109067489514
O           -5.92366709530560       -1.82652592186386        0.63897600774543
H           -7.83584428386677        1.71627684890250        0.29359794897664
C           -6.64854418865232        3.36486183148910        0.98482757219082
C           -7.86802834744496        3.26421612338376       -1.19141823714404
H           -5.96848195606966        4.11438137026905        0.58508124887192
H           -7.48925564015536        3.87764666554258        1.44644447596595
H           -6.12690282578728        2.81063185452114        1.76142678280994
H           -8.27537436397398        2.62509361451921       -1.97056304458558
H           -8.68906365645447        3.81844028199448       -0.74282911947915
H           -7.18645456608756        3.97650075224803       -1.65181569953266
N           -7.44664025725194       -0.58648563713787       -0.51318405530980
H           -8.54470428326638        0.29449439331929       -1.63455156532951
C           -8.38327204188222       -1.68480561558498       -0.56279436007757
H           -7.89070727050428       -2.63638412915975       -0.80020145764940
C           -9.14445218609539       -1.83944935354006        0.75876122522097
C           -9.39757353439300       -1.35918450487753       -1.66954137301738
H           -9.60979815896999       -0.89439808020147        1.03240059730737
H           -9.91585931756415       -2.59535451355019        0.64218858206777
H           -8.45919324300853       -2.13991996689837        1.54740746565882
O           -9.30441237743556       -0.11308422794132       -2.11715624098770
O          -10.20589826911277       -2.14931875531025       -2.07172853757652
