42
 energy: -62.486133511278 gnorm: 0.000480191708 xtb: 6.7.1 (edcfbbe)
N           -1.92431132367238       -2.06788910704444        0.88787837202557
H           -1.91629960974317       -1.81530776321535        1.87091227610807
H           -1.03016705296175       -2.49059936393940        0.66694238988594
H           -3.80799324247999       -2.40954993238388        0.59724380346278
C           -2.16408095930815       -0.89203253480353        0.05436355398119
H           -1.62857879535582        0.00851968529166        0.38497474965687
C           -1.77848923618386       -1.19769699669652       -1.39403619424422
C           -3.65720969434993       -0.60486514285139        0.10592326100886
H           -2.31237915440437       -2.07801197400272       -1.74700929541046
H           -2.02809031021203       -0.34922560780463       -2.02462988919617
H           -0.70958156342114       -1.38606061973647       -1.46886421250614
O           -4.42049444766188       -1.67711410620760        0.37886551772641
N           -4.05621934444994        0.56387806832412       -0.12045718727151
H           -5.58468089618748       -0.58154007005827       -1.99126617860302
C           -5.44550088530082        0.96483281198530       -0.13873955658009
H           -5.65502107087029        1.42329530394728        0.83355109232536
C           -5.60314632652795        2.02485457674607       -1.24329479792471
C           -6.43665464042745       -0.15838658496541       -0.33465662997987
H           -4.93265066858234        2.85008499995285       -1.00058709171652
H           -5.26010729610747        1.60168512717997       -2.19249551809134
C           -7.03402057768305        2.54594834130427       -1.41502206216876
O           -6.34929787025742       -0.86947861084238       -1.47749908429952
H           -7.69117437658029        1.70297466390344       -1.65715484841664
C           -7.55326021462693        3.20779446104846       -0.14173581786071
C           -7.07350653729240        3.53723426089152       -2.57725546205684
H           -6.87621876125653        3.99644697348045        0.17981417857059
H           -8.53124319813291        3.64733272032767       -0.32260115126750
H           -7.65526173741664        2.48151260366879        0.65959963417447
H           -6.72585742981858        3.07274458898161       -3.49759803815413
H           -8.08794519220465        3.89350368620027       -2.73771832373821
H           -6.43842727093042        4.39441781610257       -2.36400445564740
N           -7.33091432299857       -0.34499068069116        0.53227971394249
H           -8.26606840360903        0.20653559787597        1.98237375483847
C           -8.33000687515977       -1.37946462259712        0.37805140979858
H           -8.71584475786273       -1.42755184981697       -0.64795742885799
C           -7.77275648244595       -2.75402490354064        0.76433988198434
C           -9.48340921906242       -1.04161936686141        1.33159633409378
H           -7.37062324261420       -2.71865345116498        1.77468564662259
H           -8.56842249295735       -3.49221313555685        0.71976862027956
H           -6.97595649331966       -3.03049351171316        0.07909567041573
O           -9.17914766054786       -0.08968091384057        2.20731629859491
O          -10.54517168223368       -1.59917106961536        1.30394141790800
