42
 energy: -62.486133515454 gnorm: 0.000479595729 xtb: 6.7.1 (edcfbbe)
N           -1.34818374780353       -1.48801916042994        0.92528984723188
H           -1.09334740186214       -0.84390428045308        1.66682303938515
H           -0.51240935459917       -1.98749076873412        0.64526763555608
H           -3.20032717784088       -1.87993270944626        1.37711511961682
C           -1.93034322455353       -0.77018116243325       -0.20593257381504
H           -1.42396441466798        0.17479001632864       -0.44642556182824
C           -1.92552911976116       -1.66840589070100       -1.44532158219804
C           -3.37264510779592       -0.46134763289672        0.15856929338443
H           -2.46258505195394       -2.59345503177994       -1.24312079770137
H           -2.39546467524245       -1.15158086222930       -2.27747835921124
H           -0.90416194356765       -1.91641668225420       -1.72621770489193
O           -3.91618913636562       -1.28845537763750        1.06727945622216
N           -3.95971350770326        0.50885279916608       -0.39195902666023
H           -4.87860576498782       -1.22911138068603       -1.41340211503838
C           -5.35839163145459        0.78082555117564       -0.13292819476407
H           -5.48671433521246        1.08738139975316        0.91127612516487
C           -5.74521476198752        1.94194298808534       -1.06974702168142
C           -6.25520315428333       -0.41782880348656       -0.36936137552785
H           -5.00082197580142        2.72440434795842       -0.91315167680234
H           -5.63712606679424        1.59051004424658       -2.09861671304594
C           -7.14723687561089        2.52435299065907       -0.88311499031670
O           -5.78113525538310       -1.42687005278171       -1.12498301117157
H           -7.88132484474602        1.73400793667062       -1.06174720128290
C           -7.35632734171629        3.07690403794684        0.52422078689119
C           -7.37347783021838        3.62942219888545       -1.91440839950588
H           -6.61456265943074        3.84177034193981        0.74574131154754
H           -8.34437334420950        3.52293901494665        0.60620989129738
H           -7.27878775636251        2.29072951394308        1.27004903415220
H           -7.24671140873872        3.24783750289182       -2.92483388078142
H           -8.38057488490754        4.02853990046124       -1.82436914320533
H           -6.66665853877286        4.44275362745364       -1.76317510554162
N           -7.45580568428995       -0.35836484912507        0.01065410942016
H           -8.87623813214324        0.57240634181837        0.69940731918550
C           -8.38986579542101       -1.42272194216375       -0.28003109893981
H           -8.31173582289780       -1.76097589017437       -1.32148663186905
C           -8.18182388222432       -2.62600580989327        0.64659374274569
C           -9.80176074054523       -0.87032782671463       -0.04135333228495
H           -8.22193238567249       -2.30455928072495        1.68543634058957
H           -8.96448699635728       -3.35790896605615        0.46804355086013
H           -7.21146635032774       -3.07605180399619        0.45323259388399
O           -9.81624959394567        0.30324655439552        0.57932006518036
O          -10.79671358004427       -1.45572677858655       -0.36842863869704
