42
 energy: -62.486133513042 gnorm: 0.000480034890 xtb: 6.7.1 (edcfbbe)
N           -1.89705948384604       -1.72524085092821        1.24517630943154
H           -0.91861032939251       -1.98516417188629        1.23201017167068
H           -2.44129877844968       -2.58199311523622        1.30025633582823
H           -3.12105237834283       -0.54627736175169        2.14243182492949
C           -2.26002965647186       -0.98239462029396        0.04035755995038
H           -1.48392425069054       -0.22395321190610       -0.12377527289257
C           -2.40035545813838       -1.83931724952289       -1.21682560378731
C           -3.55056317921229       -0.23325486594257        0.34519830716229
H           -3.17356978950049       -2.59154745854454       -1.07237600708210
H           -2.68457226931398       -1.20994116087835       -2.05315740314325
H           -1.45983316875838       -2.33703111108651       -1.44513311532686
O           -3.82571512826740       -0.08098018133130        1.64781967151480
N           -4.24785231030371        0.20974728607046       -0.60452699378303
H           -5.88173445209400       -0.20140367615654       -2.39993215297449
C           -5.49104542753773        0.91392091890085       -0.34134854671056
H           -5.57838734372079        1.20951642999521        0.70952110713942
C           -5.58108221489388        2.13991279409618       -1.25795727029575
C           -6.57148492561676       -0.09871016968214       -0.63688899186143
H           -4.86325896456918        2.88059345350101       -0.90035684267759
H           -5.26911206950200        1.85359601790365       -2.26650019646013
C           -6.97992948290757        2.76457136046413       -1.31323330768238
O           -6.61852265616834       -0.57229504470004       -1.89558232526190
H           -7.68696135388166        2.01533960499369       -1.68768013249857
C           -7.44923195247786        3.21757983980724        0.06704178896688
C           -6.97103368541788        3.94530607075673       -2.28275148845729
H           -6.72156364101588        3.89188801246236        0.51359007029583
H           -8.39786209364684        3.74287781435975       -0.01493610413249
H           -7.59050825907178        2.36656241773562        0.72753907394090
H           -6.65331018442170        3.63178890753823       -3.27491036836728
H           -7.96525863990854        4.37761708130980       -2.36366761726185
H           -6.28937002291213        4.71713995760114       -1.93172099845461
N           -7.30319917004182       -0.51614025074757        0.29843825573767
H           -7.93692334011052       -0.35790417413965        1.98519745416811
C           -8.30165769152075       -1.54204689796853        0.08964523813064
H           -8.91280429253814       -1.33912042980741       -0.79856334119109
C           -7.67010533398642       -2.93128615066892       -0.05153377119806
C           -9.21324889302359       -1.54471792950886        1.32652283318276
H           -7.02139897603912       -3.12938106217724        0.79977323187357
H           -8.45580796471520       -3.68076235770548       -0.08299601279997
H           -7.08406489024842       -2.98115990387427       -0.96580589230924
O           -8.76219541842085       -0.78527686573424        2.31664460497912
O          -10.22069173374194       -2.19268350732320        1.39393097204629
