42
 energy: -62.486133512619 gnorm: 0.000480317320 xtb: 6.7.1 (edcfbbe)
N           -0.72571284243117       -0.10615489167202       -0.65985625019188
H            0.04702102407908       -0.56842403029777       -1.12295812849308
H           -0.47959358291050       -0.00489851079859        0.32107675123298
H           -1.85483359241258        1.40137325313916       -0.89104036373689
C           -1.95744455694394       -0.88295797909443       -0.78457283097817
H           -2.04521764429177       -1.18141445836416       -1.83798738125307
C           -2.00932341270699       -2.12733687660367        0.09964833117015
C           -3.11872016097287        0.07352586889964       -0.50643819020545
H           -1.94793704818624       -1.84359227876526        1.14825032199736
H           -2.94090716259889       -2.66171147286448       -0.05331569687191
H           -1.17930468232789       -2.79026119929853       -0.13713447817276
O           -2.81161292096686        1.36496926999792       -0.67849759352723
N           -4.21467480338537       -0.41565248586313       -0.13556431773250
H           -5.09021322967781       -1.76321092156873       -0.99072604764280
C           -5.48252964873723        0.24586286947901        0.07598617583990
H           -5.61198523204469        0.36544995876689        1.15730872155851
C           -5.61957221754345        1.61766195856629       -0.61166537645980
C           -6.53532713158231       -0.74056364372138       -0.41812919561298
H           -4.83908115550165        2.26553701301160       -0.21095637538990
H           -5.41991476319552        1.47899151834715       -1.67779324637100
C           -6.96667788613194        2.32573500971455       -0.44917705448224
O           -6.06739598305135       -1.81667254928375       -1.06335545484684
H           -7.74301090600794        1.71937725983129       -0.92123491720103
C           -7.32626340508146        2.53710488221291        1.01898217207012
C           -6.90940615024633        3.67204822911560       -1.17038618273754
H           -6.54627963618827        3.10597318393025        1.52185030066979
H           -8.25852215582470        3.09074721952530        1.09928507586681
H           -7.44967454640228        1.58669470605024        1.53100765927605
H           -6.66284418833469        3.53774980306445       -2.22104690775668
H           -7.87155552563882        4.17407767401837       -1.10708961864109
H           -6.15546001720766        4.31517086318177       -0.72075938405598
N           -7.75952347702195       -0.52500032334043       -0.20317780305026
H           -9.14944530449841        0.56051134145897        0.33264304258540
C           -8.77121920719158       -1.44762606248147       -0.67336453260710
H           -8.58422311597191       -1.76613734460118       -1.70649626485003
C           -8.86172335466352       -2.69283098937961        0.21699051313436
C          -10.12213110427082       -0.72223820046593       -0.61443195161450
H           -9.00076596046852       -2.39736642430419        1.25510581504312
H           -9.70716916305092       -3.29811644883834       -0.09754944002233
H           -7.94794881245135       -3.27510133609735        0.13271291942941
O          -10.08617095340805        0.41775714772790        0.06499563630815
O          -11.12189564210489       -1.16107645723038       -1.11220344531653
