42
 energy: -62.486133509832 gnorm: 0.000480283528 xtb: 6.7.1 (edcfbbe)
N           -2.05934170659062       -2.11083248277286        0.98075713761427
H           -2.07945656003240       -1.87005268910138        1.96653274433977
H           -1.16855497967956       -2.55183053228829        0.78475496872334
H           -3.93728828531119       -2.40463266807529        0.63847327791294
C           -2.24425514724190       -0.92062611338367        0.15355583411080
H           -1.70604899124543       -0.03458310943003        0.51800550455368
C           -1.80566898490716       -1.21390184374726       -1.28219876991455
C           -3.73318767196131       -0.60557553757037        0.14704132474426
H           -2.33839419681589       -2.08148525813527       -1.66709770071814
H           -2.02030483107004       -0.35381716500728       -1.91003682691440
H           -0.73734275351709       -1.41632838244346       -1.31869563615637
O           -4.52639666432982       -1.65945759518955        0.39858572289677
N           -4.09941234886980        0.56560629625010       -0.11773869751207
H           -5.78246726980107       -0.47185571697889       -2.08696680517531
C           -5.47645093808736        1.00189680367006       -0.18806446073441
H           -5.69134607556223        1.50214831145524        0.76262504387056
C           -5.57914893431413        2.02516346556872       -1.33179364874616
C           -6.49049367743685       -0.10742513869159       -0.34947364748645
H           -4.90878927255353        2.85099248223640       -1.09075295368634
H           -5.20312222936711        1.57130554405854       -2.25436639734241
C           -6.99695562690751        2.55600866068400       -1.57108587876412
O           -6.49078737809319       -0.78948667218008       -1.51330988458093
H           -7.65592154179200        1.71485759675063       -1.81534741932334
C           -7.55453307290985        3.25626803235778       -0.33471955553452
C           -6.98278840548210        3.51623878486318       -2.75976737057576
H           -6.87475844931997        4.03752442952517       -0.00144243242065
H           -8.51420025172839        3.71230420771760       -0.56600215795788
H           -7.70540338995770        2.55041689470732        0.47740414477885
H           -6.60175003092410        3.02542069006462       -3.65296240514673
H           -7.98737088957742        3.87435718091351       -2.97051271034279
H           -6.35061147179100        4.37481455861894       -2.54376482032619
N           -7.29407068470452       -0.34182241541228        0.59160594589951
H           -8.10324897973198        0.16294644198413        2.12879796594761
C           -8.29437890254038       -1.38167758226295        0.49514185402001
H           -8.76702501855524       -1.40522069062071       -0.49477064196190
C           -7.70003476803862       -2.76241409688887        0.79397179529383
C           -9.36348065126447       -1.07972311885575        1.55352033464015
H           -7.20727759064637       -2.75002118831107        1.76379377997248
H           -8.49557667580816       -3.50213801687515        0.80382658324570
H           -6.96888314843223       -3.01871074793977        0.03222660164402
O           -8.99180881022831       -0.14708669596450        2.42404668587744
O          -10.41785408949737       -1.64959058712878        1.60513799277980
