42
 energy: -62.486133508885 gnorm: 0.000480449749 xtb: 6.7.1 (edcfbbe)
N           -2.37453020179571       -1.27844780488823        1.79783005319735
H           -1.44619574811635       -1.68386282388641        1.82015303488231
H           -3.01328923472833       -1.96057662377793        2.20055596387150
H           -3.32533220703162        0.32849468413101        2.23374612607076
C           -2.78184403403197       -0.98343342973770        0.42393660186165
H           -1.96108899836310       -0.42643544127570       -0.04732970823572
C           -3.11165768720969       -2.21247970675145       -0.41967039502012
C           -3.96715634158923       -0.03397713970272        0.51212556088310
H           -3.84809447508946       -2.82818631552461        0.09123530512874
H           -3.52820527254026       -1.89487219964790       -1.36887159864190
H           -2.21597893588574       -2.80507509753431       -0.59466366571595
O           -4.03685306619283        0.67183188698399        1.65575435551738
N           -4.78712805714846        0.03318029979016       -0.43798157184016
H           -8.12650864771629        1.25294126012058       -1.50115073757209
C           -5.93702220746265        0.90738324324266       -0.36628054252278
H           -5.97650954973033        1.43897982456644        0.59712253954249
C           -5.87343892254581        1.92604000854400       -1.51559393113505
C           -7.15167256429139       -0.00264143575783       -0.42534871940587
H           -4.81943807005603        2.13428161825548       -1.70913927819899
H           -6.26790006221165        1.46906777269064       -2.42773937399850
C           -6.58953734443531        3.25127592125942       -1.20832636623084
O           -8.25890792627595        0.39360062124800       -1.08029073307629
H           -7.52719411939595        3.05384213869869       -0.67202173760098
C           -5.71998489469198        4.13278298632830       -0.31359602502392
C           -6.92001698453443        3.98743384724786       -2.50613510157591
H           -4.81346253323082        4.42357228316221       -0.83998834682462
H           -6.25666880797531        5.03497413094191       -0.02938275159880
H           -5.43334435910405        3.60573046919037        0.59313959442825
H           -7.59163285732288        3.40402002122657       -3.13384691959839
H           -7.39837853506456        4.94011006257146       -2.29103113595442
H           -6.01006550209126        4.18164748831032       -3.06951930444831
N           -7.05917855884892       -1.09212446694487        0.19473708157962
H           -5.98431480344623       -2.10989805762302        1.07891747177369
C           -8.06818511746096       -2.11451569690938        0.28051726714924
H           -8.97916835416240       -1.73682712382454        0.76224032772572
C           -8.43772407127184       -2.72324627990912       -1.07554022835683
C           -7.46499743581419       -3.21859125399269        1.17167594809416
H           -7.53524945487260       -3.03937618519679       -1.59506723597289
H           -9.07802236328280       -3.58619481881172       -0.91528387139723
H           -8.96021285905055       -1.99111450415053       -1.68518460978369
O           -6.19581936218020       -2.99104436120488        1.49136277885089
O           -8.07428076845190       -4.19029568705391        1.52286918528035
