42
 energy: -62.486133497320 gnorm: 0.000481981691 xtb: 6.7.1 (edcfbbe)
N           -1.85579721809426       -1.41885202311043       -0.85826686643967
H           -1.24261793109847       -2.21570827240671       -0.73946526822404
H           -1.27299334756761       -0.58679743588450       -0.89109674545767
H           -3.32745930760442       -0.90370941806037       -1.94899528767580
C           -2.80535700790925       -1.31621647854421        0.25044872395103
H           -3.19389421928464       -2.32363242480643        0.44550184932043
C           -2.22461598224207       -0.74266419562329        1.53995823705877
C           -3.98624135891532       -0.49110402354440       -0.23955767354918
H           -1.79818842173221        0.24122494141132        1.35342598398016
H           -3.01810796906250       -0.63884737511120        2.27183396561349
H           -1.44906139790360       -1.39630523188500        1.93373319033968
O           -4.09909965952577       -0.42208964283564       -1.58381423430818
N           -4.77286321108877        0.02087528755613        0.59523402369877
H           -6.29360172667931        0.46392388406556       -2.24827684240619
C           -5.94165304656538        0.78280282104273        0.18574894774954
H           -6.42726869042894        1.05401392594992        1.12996275918265
C           -5.58288816079535        2.05706245533400       -0.58585715136461
C           -6.88438606826657       -0.16021758002534       -0.53755052485672
H           -4.86665236152550        2.61261426399312        0.02440266751645
H           -5.06642737361905        1.79775564197942       -1.51523031900179
C           -6.78861249733367        2.95615929732862       -0.89239499083446
O           -6.95710756076388       -0.13406421571115       -1.88000355667031
H           -7.59698273629954        2.34855651240018       -1.31467476183964
C           -7.31369446094955        3.63552492354095        0.37020452741004
C           -6.38930207073886        4.01227943842783       -1.92297536403937
H           -6.53100861108307        4.23300562777293        0.83309204957600
H           -8.14485132619572        4.29224221062648        0.12395403580558
H           -7.66479168221059        2.90458347735530        1.09347249244561
H           -6.06110183387796        3.55053959899719       -2.85230265239456
H           -7.23162147230946        4.66222929642848       -2.14671266427828
H           -5.57674820554007        4.62571322690855       -1.53903531903282
N           -7.50655729593282       -1.00335201655951        0.16327169883421
H           -8.06944649964967       -1.58579129148853        1.77877960336791
C           -8.34909150996298       -2.01871117628842       -0.42658690802793
H           -9.02613864070676       -1.59965943920813       -1.18154321133071
C           -7.52517189092202       -3.14052067481661       -1.06962861922051
C           -9.18756595993034       -2.62456165437496        0.70910368107535
H           -6.81367560642853       -3.53557924434390       -0.34680754393694
H           -8.19170137446405       -3.93744275697518       -1.38713331755085
H           -6.98226574324033       -2.75712363482959       -1.92981606869090
O           -8.80436907417350       -2.23022239782694        1.91645222470660
O          -10.08522123999139       -3.39792680352425        0.51857364823499
