42
 energy: -62.486133508651 gnorm: 0.000480258493 xtb: 6.7.1 (edcfbbe)
N           -1.08641421264857       -0.53963299209603       -1.20133591989920
H           -0.30061877008525       -1.16331843038077       -1.33849692468559
H           -0.74005249507567        0.28774307939320       -0.72272505121963
H           -2.53857127585002        0.18041542378737       -2.20657143709118
C           -2.12800119372992       -1.17698913849040       -0.39505277171438
H           -2.28471714945570       -2.18455643974495       -0.80271140297538
C           -1.81491737866221       -1.27898739852353        1.09473306047649
C           -3.41529421128149       -0.40056574844204       -0.64130588998374
H           -1.62155399653720       -0.29013120678088        1.50589688999534
H           -2.66930548619166       -1.70179592617410        1.61207070344693
H           -0.94298939841971       -1.90858663520908        1.25895653462250
O           -3.44282181602861        0.24540443613352       -1.83495172642912
N           -4.34730458754269       -0.47169953581131        0.19283037697777
H           -5.36119990956630       -0.77743804100455       -2.03815067293133
C           -5.60311978350955        0.23868801214670        0.13034230657031
H           -5.93596095928411        0.30834879523526        1.17071291674594
C           -5.55426386417461        1.64905698897849       -0.48534150406945
C           -6.61767125398949       -0.60407980608367       -0.60845630298578
H           -4.69453908302304        2.17271912260217       -0.06042160493123
H           -5.39421399673611        1.57187784025306       -1.56298649335771
C           -6.82809646471684        2.46146467928754       -0.22616978221885
O           -6.24234152400083       -1.10178643947673       -1.80144188028066
H           -7.69484653372515        1.83645454811858       -0.46500590746193
C           -6.93365429281506        2.90268674844856        1.23150820521673
C           -6.84594650524577        3.68629424085778       -1.13995355945940
H           -6.08008830168550        3.52098511244573        1.50281921435298
H           -7.83934480834395        3.48525343745547        1.38029008434848
H           -6.96972076161392        2.04925641131616        1.90279387738241
H           -6.81563554737068        3.39077082517031       -2.18632161505607
H           -7.75029943997315        4.26703680434825       -0.97670868723814
H           -5.98762818052875        4.32396723530126       -0.93735826169541
N           -7.77102501948838       -0.74592554403254       -0.12336519410961
H           -9.07502173556816       -0.15594814841837        1.00372504526045
C           -8.80250850470521       -1.48115729910435       -0.81982174492048
H           -8.78562345151880       -1.29105293505219       -1.90086343820658
C           -8.67122491559557       -2.98924333909903       -0.58096772605117
C          -10.15216486800781       -1.01535860844140       -0.25445829827662
H           -8.63962902925423       -3.19407450415170        0.48717704817491
H           -9.52628602426331       -3.49749552959520       -1.01771770343419
H           -7.75670842162446       -3.35743660093795       -1.03920145619328
O          -10.03978840739106       -0.26738286816717        0.83699224133867
O          -11.20507770803720       -1.31580638081565       -0.74405044715120
