42
 energy: -62.486133513211 gnorm: 0.000479349142 xtb: 6.7.1 (edcfbbe)
N           -2.34621463943407       -2.52411305559244        0.71428086248697
H           -1.44576256285284       -2.83410411890888        1.05681814282337
H           -2.52396387933143       -3.00640991357871       -0.16246241662522
H           -4.15771682106256       -2.28263014565402        1.31441800418535
C           -2.35819416128845       -1.07823310355145        0.50092354124624
H           -1.91060491526299       -0.61217559999022        1.38772268546321
C           -1.60860996755515       -0.60869328639767       -0.74448471959772
C           -3.81703823647254       -0.63933156090853        0.47246444200305
H           -2.00848554184594       -1.09876514656120       -1.63074701078858
H           -1.73478307952640        0.46306308646030       -0.85532509933594
H           -0.54897020212389       -0.84177030013373       -0.66221848153079
O           -4.67582788380366       -1.49817604462433        1.03871310402395
N           -4.11399246413304        0.47462861081297       -0.03090293811058
H           -5.43815342647508       -0.26745437361280       -2.12637564252759
C           -5.47924258514879        0.96445519725538       -0.08256222367945
H           -5.77607767610320        1.28763280940950        0.92117822211559
C           -5.51114692130675        2.15776614011827       -1.04859618075687
C           -6.44072444555798       -0.11839500978800       -0.51003976334151
H           -4.88912774188134        2.94538273434831       -0.62143385349447
H           -5.04406584065404        1.86122487167432       -1.99246795700467
C           -6.91775033983937        2.69789631333663       -1.32753587632618
O           -6.20769432499490       -0.68297392408465       -1.71553062327906
H           -7.52979841018447        1.89157472006468       -1.74821435167136
C           -7.59429002511290        3.19595885830689       -0.05316734517431
C           -6.83344952135598        3.82512601721987       -2.35565240577066
H           -6.96801767678811        3.93192396301558        0.44655765229972
H           -8.54619637607699        3.66304448441754       -0.29420784500634
H           -7.78652473173578        2.37415593251935        0.63086538527051
H           -6.36994411005884        3.47811657975156       -3.27675681311331
H           -7.82671225819615        4.19766085599382       -2.59342956661067
H           -6.24237721582526        4.64997215924100       -1.96359841014490
N           -7.37556932409729       -0.47026828506533        0.25391053077514
H           -8.37778428071064       -0.22037195020221        1.73687734144816
C           -8.30253256301817       -1.51943653891888       -0.10671760029784
H           -8.66411582498385       -1.40834166427123       -1.13679757757384
C           -7.67484872422307       -2.90868491668922        0.05217458003511
C           -9.49545384475707       -1.41757250557906        0.85460886723533
H           -7.25692122592389       -3.00999908073419        1.05139758954080
H           -8.43739885026688       -3.66741706593501       -0.09981623373422
H           -6.88031404204499       -3.03975344076295       -0.67762472458509
O           -9.27568523886660       -0.60353271769837        1.87975393456500
O          -10.51410932795895       -2.03300549330792        0.70293614437412
