42
 energy: -62.486133517506 gnorm: 0.000479480794 xtb: 6.7.1 (edcfbbe)
N           -1.06841009246471       -0.71530345797889        0.79953267897221
H           -0.10792024711362       -0.89809179623166        0.53597318736334
H           -1.35264489601485       -1.44666130514826        1.44575658724360
H           -2.20366907101712        0.71299481930847        1.42680110548803
C           -1.94396627558775       -0.72160943893292       -0.37112506788397
H           -1.46343751441931       -0.10235224362133       -1.14017288930913
C           -2.22695220367986       -2.10920472989554       -0.94432606875550
C           -3.22659437585823       -0.00728449896846        0.03061560279233
H           -2.72803857569151       -2.72668525635564       -0.20150198448419
H           -2.87294357470860       -2.02594159837372       -1.81167565124603
H           -1.29728819255665       -2.59257569911200       -1.23853894611907
O           -3.11310830696204        0.81682223006212        1.08103584644418
N           -4.28440960572418       -0.20288322804958       -0.62286912436238
H           -5.49159099061457       -0.94649833183039       -2.07608260847106
C           -5.51519324526216        0.47525219328343       -0.26738381056072
H           -5.57401373912290        0.67960545593794        0.80631574932912
C           -5.62895976939678        1.79251616704482       -1.05507835919304
C           -6.62283884113339       -0.46934594239786       -0.66915267649562
H           -4.80132307261254        2.43635034509849       -0.74945576467724
H           -5.50189835679361        1.56656713033728       -2.11780833762866
C           -6.95664031010621        2.52903580219186       -0.85171417982009
O           -6.41504620339499       -1.12108466062766       -1.82260282023928
H           -7.77723401120135        1.84231990380538       -1.08435718567120
C           -7.12182706388202        3.01216573909569        0.58641836578611
C           -7.02871323700512        3.71426669908933       -1.81351351692462
H           -6.30260650727980        3.67384011449894        0.86004337525410
H           -8.05557243162583        3.55876511373424        0.69151390561548
H           -7.14157849254551        2.17669997526054        1.27996710947207
H           -6.94738676342313        3.38189113548455       -2.84608226740580
H           -7.97394704219622        4.23842510732509       -1.69753354141293
H           -6.22088510182854        4.41520166915723       -1.61292607355346
N           -7.62469361662829       -0.62862337914671        0.07781339393098
H           -8.74420117279147        0.07416483165849        1.31687436691348
C           -8.70006540805992       -1.52707896740293       -0.28457775171888
H           -8.92101752037776       -1.49316660170384       -1.35893599709388
C           -8.37265438303010       -2.97182075327888        0.10715814012372
C           -9.94925498743266       -1.08079279782812        0.48903416206532
H           -8.09704275685656       -3.01659804486118        1.15883591306481
H           -9.24592867688566       -3.59587403121453       -0.06011225749340
H           -7.54365638583210       -3.33867796951545       -0.49302521098772
O           -9.70422155541378       -0.13885485634175        1.39207312183079
O          -11.03681668547489       -1.55190068058909        0.30372447349066
