42
 energy: -62.486133509894 gnorm: 0.000479819567 xtb: 6.7.1 (edcfbbe)
N           -0.70255833584260       -0.06417293341511       -0.49630830561429
H            0.09477260907317       -0.44853704678190       -0.98806975181111
H           -0.51328624142024       -0.13633517819463        0.49939060214988
H           -1.81868072186817        1.47999025591592       -0.55191088110076
C           -1.92637567098891       -0.79310137310611       -0.82348357050485
H           -1.95598280403046       -0.89914754040312       -1.91630456901100
C           -2.02672760595722       -2.17543426585499       -0.17963586685768
C           -3.09732815906831        0.11376694221746       -0.44537540760741
H           -2.09555226893383       -2.08247459106310        0.90231028441982
H           -2.90810375325936       -2.69899244543873       -0.53564844072521
H           -1.14706473254515       -2.76621044776719       -0.42922524787046
O           -2.78426408503193        1.41466811597998       -0.39544178465423
N           -4.21052730261821       -0.41365107708328       -0.20006187475210
H           -5.08180296662259       -1.85330141492688       -0.77073473131595
C           -5.47482902972910        0.23627124613157        0.06996389092369
H           -5.55964443647432        0.38609610094186        1.15262379343794
C           -5.63317930821020        1.58985550355051       -0.64803351957948
C           -6.53430785815387       -0.77991606295570       -0.35076764549035
H           -4.84372033088499        2.24600757814763       -0.27960337182651
H           -5.45495683741129        1.42176108731031       -1.71392864247996
C           -6.97293415456713        2.31000770463047       -0.47957591135138
O           -6.06115162754442       -1.93710984621290       -0.82540052511127
H           -7.75235612423626        1.71935326461380       -0.96496048632156
C           -7.33636347138068        2.50378804510696        0.98985978527646
C           -6.89659743816800        3.66546461547497       -1.18177806504164
H           -6.54884249027978        3.04965354987854        1.50627689018950
H           -8.25874282666569        3.07314745106859        1.07498823680231
H           -7.47951585630504        1.54639233440269        1.48359069758873
H           -6.64155326504593        3.54260489088111       -2.23183080118521
H           -7.85476503838304        4.17518642934652       -1.12086008891158
H           -6.14124785314746        4.29600475305491       -0.71677171160727
N           -7.76279025416837       -0.51073095346061       -0.24637275350087
H           -9.17904193711349        0.60617345606796        0.18297157828429
C           -8.76636925483325       -1.47307584095120       -0.65105317103336
H           -8.54301225047329       -1.90386795620216       -1.63502335538888
C           -8.90761732304899       -2.61374850242233        0.36503063211253
C          -10.11092466293117       -0.73910719835101       -0.71880507900905
H           -9.10269521473482       -2.20698739450091        1.35567651544218
H           -9.73531150232694       -3.25432416232622        0.07369980260306
H           -7.99118783278738       -3.19737884035274        0.39445856325529
O          -10.10244514699214        0.44401242474456       -0.11532006081672
O          -11.08660589425704       -1.20462655271987       -1.23962064435638
