42
 energy: -62.486133519521 gnorm: 0.000479801026 xtb: 6.7.1 (edcfbbe)
N           -1.14641497635683       -0.72938993663914        0.81765127798092
H           -0.19818193087404       -0.97263417259370        0.55828522962997
H           -1.44907683385581       -1.39301452934280        1.52576749133057
H           -2.21874341656372        0.78863046341846        1.33850958789840
C           -2.04021824304808       -0.79827743691806       -0.33732047652545
H           -1.54958500261649       -0.26187709539720       -1.16045125900384
C           -2.38474366582331       -2.21516137610641       -0.79189766314894
C           -3.28939958289851       -0.00651079784127        0.02025764302159
H           -2.86427011691107       -2.76109311575892        0.01799334143082
H           -3.07388716886837       -2.17364757454322       -1.62834032143829
H           -1.48416979147503       -2.74611970490561       -1.09420800426842
O           -3.12796969857068        0.90047899976526        0.99488148871599
N           -4.36613526078750       -0.22103343108997       -0.59481237038869
H           -5.80656110762504       -0.57685686928655       -2.31818040625569
C           -5.55693231521116        0.54571976373625       -0.28053608277260
H           -5.62351622150199        0.75793637926740        0.79192639281494
C           -5.56804166433471        1.86523421234334       -1.07005800118527
C           -6.71168947906835       -0.33729036297395       -0.68531715536427
H           -4.76455179921914        2.49350400899338       -0.68059360480803
H           -5.33986397252290        1.64931524781758       -2.11848997530362
C           -6.89922490399088        2.61991298673545       -0.99190707710181
O           -6.67255207292756       -0.79910868151856       -1.94658257215436
H           -7.69431109379530        1.96771738747959       -1.37082752212604
C           -7.24194187485612        3.01542026518761        0.44165749741451
C           -6.82791695759147        3.86195228097067       -1.87903749114004
H           -6.42829949844514        3.58796122581128        0.88202050684321
H           -8.14014094537136        3.62806667736340        0.45523401191811
H           -7.42449779895901        2.13682327294436        1.05376989331421
H           -6.60482657294636        3.59190940240628       -2.90903719073289
H           -7.77602441445223        4.39362915736910       -1.86380235641809
H           -6.05103635443653        4.53595918702222       -1.52399151796042
N           -7.58324209379029       -0.66479069130145        0.16278238569773
H           -8.46618432238512       -0.31379634828758        1.70499337264800
C           -8.68049885072648       -1.54450174493585       -0.17998683975356
H           -9.08820867741990       -1.32518861986823       -1.17453666328839
C           -8.25207605374925       -3.01541792022054       -0.13408685129801
C           -9.78342131668588       -1.32784322886578        0.86620808498520
H           -7.79850655077536       -3.23887458738031        0.82944632740904
H           -9.12447829018512       -3.64764801751784       -0.27333110487382
H           -7.52915866253753       -3.21485261427634       -0.92098196237199
O           -9.39491598915664       -0.58477428497128        1.89596822003892
O          -10.88077571454824       -1.80249361246140        0.76989670963824
