42
 energy: -62.486133507197 gnorm: 0.000480704147 xtb: 6.7.1 (edcfbbe)
N           -0.83314629428525       -0.51151851472592        0.44128016741476
H            0.10978385128883       -0.59189600941029        0.08125882461536
H           -0.98671741762767       -1.29209535240962        1.07407700958625
H           -2.00298524039143        0.81855607080088        1.21857695808043
C           -1.81534293591595       -0.54537492747898       -0.64061474877281
H           -1.46474334174283        0.14233010198951       -1.42133547818486
C           -2.04371423175412       -1.92539231134282       -1.25631835047370
C           -3.10376845835977        0.04731145111897       -0.08845281015410
H           -2.39611656403705       -2.62376251546568       -0.49892714898539
H           -2.78869410962195       -1.85597258880850       -2.04224795404518
H           -1.11702698353787       -2.30707272099314       -1.68005020763086
O           -2.94874694681507        0.85478241684596        0.96936797958911
N           -4.20151321636792       -0.20833222180554       -0.65030539535871
H           -5.02261720548519       -1.87355907053016       -0.66402322493830
C           -5.44967211940771        0.34098391060382       -0.15228456428370
H           -5.37310358318328        0.60115466925563        0.91272335157716
C           -5.72956496838735        1.61736223688656       -0.96486114076273
C           -6.48376024673360       -0.76197524664633       -0.29441501307708
H           -4.89375817456053        2.29308623303429       -0.76265022161381
H           -5.69073408034042        1.34877933547471       -2.02284210662337
C           -7.03985929734354        2.35711942507162       -0.68584854059363
O           -5.97533534734285       -1.99272829920579       -0.47532100948767
H           -7.86127758774616        1.76473851257408       -1.09295319938372
C           -7.27409155995378        2.57548175545005        0.80576721883288
C           -7.01611705960554        3.69976490939029       -1.41613240999727
H           -6.43006824014510        3.09885097136728        1.25106136034173
H           -8.16781702327755        3.17564189018068        0.95955722442762
H           -7.40770539790230        1.62659923627684        1.31798451277071
H           -6.83633522442981        3.55730429644403       -2.47908784355917
H           -7.96847278033700        4.20997252326891       -1.29622318634300
H           -6.23142543243682        4.33965201391530       -1.01699132680816
N           -7.72048616458117       -0.51551831262395       -0.30028324162560
H           -9.19666532885506        0.60182192211577       -0.10480175105424
C           -8.68243470449316       -1.58645839571122       -0.45650118227166
H           -8.42814421272159       -2.23625460311000       -1.30305525163979
C           -8.79770845953699       -2.44822974737335        0.80768066941891
C          -10.05281366202532       -0.94590641818484       -0.70542016914822
H           -9.02083182024178       -1.81963882492756        1.66800507045246
H           -9.59834191143866       -3.17117107584438        0.67820963393471
H           -7.86227592765083       -2.97292729479420        0.98342487367552
O          -10.10567534726285        0.33903485231904       -0.37301694476248
O          -10.99636650395324       -1.55657014284065       -1.12507541294707
