42
 energy: -62.486133509531 gnorm: 0.000480460094 xtb: 6.7.1 (edcfbbe)
N           -1.19985057620067       -0.51806143371579       -1.81104417744724
H           -0.46156767195579       -1.15902589077562       -2.07275761117788
H           -0.76210145014286        0.33107305559503       -1.46490323574674
H           -2.78960987664017        0.20312551568057       -2.52702600106268
C           -2.06049878850788       -1.09213098839570       -0.77878573029369
H           -2.25839840714878       -2.13439419679382       -1.06054197992114
C           -1.47317973591802       -1.05298919272860        0.63043527355211
C           -3.39856570695421       -0.35318963554432       -0.84519609568900
H           -1.24036646780456       -0.02693917529627        0.90852411934242
H           -2.19753570201106       -1.44115434342200        1.33841739598959
H           -0.56385411877021       -1.64842501542569        0.68094286558216
O           -3.60480171769748        0.30659220587016       -1.98992898480901
N           -4.17668250359797       -0.44843623609840        0.14068548583326
H           -5.12349337563383       -2.13570541342600       -0.26374634711507
C           -5.49814384654970        0.14617121028921        0.24160756475682
H           -5.67154155388942        0.22197538589296        1.32428117974281
C           -5.59515375277450        1.55179321501177       -0.37113475141471
C           -6.51714063331207       -0.85181905468070       -0.28212808949654
H           -4.74664161096318        2.11379407067237        0.03101674468076
H           -5.46238685779631        1.47605879681919       -1.45012774135443
C           -6.87963569415622        2.34296767246204       -0.10202667884402
O           -6.06559837661854       -2.10222533526373       -0.50129200188694
H           -7.67128294288957        1.93069031034559       -0.73052049291200
C           -7.32677651742627        2.28434564631088        1.35559964737522
C           -6.65587883082903        3.79630759008261       -0.52119392818933
H           -6.52449062292903        2.60731690513292        2.01638999929323
H           -8.17844238708711        2.94344370064093        1.50775559240814
H           -7.62583853730205        1.27648412349509        1.63059831345869
H           -6.31669359561437        3.85080624550479       -1.55290485869473
H           -7.58065137942340        4.36141298681965       -0.43513053684064
H           -5.90644521008704        4.26668441223904        0.11266383051228
N           -7.72121043211372       -0.52062045457386       -0.44882961717577
H           -9.14991249658195        0.66966073887297       -0.34042996212404
C           -8.69944816066386       -1.48420428031314       -0.90951283048420
H           -8.33881936641822       -2.04571120802280       -1.77954927825539
C           -9.08872094880179       -2.47697148414829        0.19410981758330
C           -9.96545436712565       -0.71075543877079       -1.29708466720621
H           -9.42168982461778       -1.93773034388659        1.07916582052080
H           -9.89664552794996       -3.11040708233488       -0.16123830885144
H           -8.23388962832025       -3.09514790517877        0.45520703109246
O          -10.00990021011049        0.51692141641793       -0.79271594350172
O          -10.84725185648947       -1.18360686688947       -1.95871570106656
