42
 energy: -62.486133511543 gnorm: 0.000479495825 xtb: 6.7.1 (edcfbbe)
N           -0.80875802183929       -0.17585250505268       -0.72808938846612
H           -0.07752222498730       -0.46292543620912       -1.36738070883250
H           -0.55259526975622       -0.50910769108001        0.19744126476952
H           -1.85124109571133        1.39834900769079       -0.30139776468968
C           -2.09815493465978       -0.74452484856255       -1.12043071164104
H           -2.21610178872621       -0.57018952414073       -2.19783933993471
C           -2.25805195107574       -2.23530444156305       -0.83430398940688
C           -3.18014163974939        0.07940695377928       -0.43652732493104
H           -2.10355528066977       -2.43344546125748        0.22474900022480
H           -3.26355248312735       -2.54441969991524       -1.09856677883918
H           -1.53856371836106       -2.81310670084119       -1.41076176667245
O           -2.80531944150480        1.32517527363805       -0.09578986695971
N           -4.31154638138040       -0.43058251609599       -0.24407729860627
H           -5.65469991586802       -1.49825032931233        1.91467652360880
C           -5.42080261092720        0.30454835263057        0.33634752299795
H           -5.16086676207119        0.62847827564108        1.35564299889492
C           -5.81104468844072        1.52825294583835       -0.50307146409798
C           -6.53224147694615       -0.72093544709217        0.39962486524221
H           -4.95083659529919        2.19738284700891       -0.54641970227900
H           -6.02196400038759        1.17543915517903       -1.51358391548036
C           -7.02170182935473        2.29870861186115        0.03325905311390
O           -6.47803198058234       -1.60252334040746        1.42269321458955
H           -7.83874632542459        1.59169256177581        0.20432601861151
C           -6.70241600061735        3.00921892850289        1.34698226425547
C           -7.47526998627729        3.31670828391263       -1.01174718891396
H           -5.85277272739599        3.67717444166303        1.22061994955917
H           -7.55629924505550        3.59904957991442        1.67264579176748
H           -6.46829611729921        2.29877574169077        2.13599112515080
H           -7.74620328603908        2.82040131237704       -1.94032230451205
H           -8.34122590426231        3.86908044564786       -0.65451543403336
H           -6.67805948757076        4.02720985331721       -1.22007193576584
N           -7.39336838460685       -0.78651123189660       -0.51321990930501
H           -7.94760378783999       -0.28475392087203       -2.14380720218046
C           -8.41506566090164       -1.80591023354809       -0.54358632534463
H           -8.00524227377377       -2.80060430238347       -0.32751142178752
C           -9.54482228205575       -1.51104255688691        0.44938317341068
C           -9.00410883037690       -1.80511625908845       -1.96325463046088
H           -9.93996560621285       -0.51159568896465        0.27740773808741
H          -10.34179369745763       -2.23611946785253        0.31108148128021
H           -9.16924909075232       -1.57489590857867        1.46751706762070
O           -8.59297091740398       -0.78225259200618       -2.70203354666830
O           -9.77541755292149       -2.63710830488285       -2.35314403375506
