42
 energy: -62.486133512018 gnorm: 0.000479613852 xtb: 6.7.1 (edcfbbe)
N           -1.19696954081477       -1.04063942911418        0.94931185872108
H           -0.21727602506857       -1.21249417018666        0.75858107193126
H           -1.58093519469135       -1.88541803419746        1.36426226277055
H           -2.34964986299323        0.28906592790797        1.75829662507331
C           -1.92174240997765       -0.71725434903779       -0.27807133524357
H           -1.33911359402541        0.04962753153477       -0.80583855955658
C           -2.15458784216560       -1.90332632730627       -1.21255768915009
C           -3.23015571547734       -0.06243320999541        0.14151026872858
H           -2.77397402583522       -2.65201037206781       -0.72300295652967
H           -2.66227836201590       -1.56975813455694       -2.11124991447299
H           -1.20452945162975       -2.35588385321705       -1.49025511725424
O           -3.21337545664434        0.50694387352961        1.35433802108540
N           -4.21139294351507       -0.06583580987836       -0.64636140049041
H           -5.36003710961241       -0.97143528795672       -2.01209597319541
C           -5.47413859635606        0.54427517954384       -0.28100384166587
H           -5.53632915205100        0.76473883645011        0.78908407457633
C           -5.66329826788843        1.83417879140931       -1.09802006798177
C           -6.53499952461341       -0.46663211599954       -0.64986864534567
H           -4.85431514999802        2.51869517782847       -0.83331165998483
H           -5.55442901547072        1.58438512417993       -2.15691567784754
C           -7.01308497989778        2.52378729491866       -0.87626193878316
O           -6.27460198279613       -1.18476934446429       -1.75193796314728
H           -7.81163226645781        1.79953068528003       -1.06657139679806
C           -7.15757284745136        3.04120091573566        0.55234853361406
C           -7.16021565951678        3.67816504906735       -1.86661778083650
H           -6.36466898331686        3.75083374190296        0.78015579090014
H           -8.11385972368829        3.54418516132586        0.67185721211898
H           -7.11313841040823        2.22788858663519        1.27076089390781
H           -7.09579262440595        3.32079543381059       -2.89190229445156
H           -8.12202559974140        4.16749228766626       -1.73578886724030
H           -6.37581662535973        4.41582862630821       -1.70933293552657
N           -7.55918131177673       -0.59880018575730        0.07173926156511
H           -8.76796119283081        0.22108626470950        1.15392822956973
C           -8.60229820701564       -1.54384345201346       -0.26274427192157
H           -8.74482929051607       -1.63862343106365       -1.34680091610187
C           -8.29913391586992       -2.92787410037532        0.32070330312862
C           -9.90612628215398       -1.02673001674737        0.36275765556540
H           -8.10424905092580       -2.84497281048306        1.38803266877709
H           -9.15412610777700       -3.57922256331861        0.16310596387460
H           -7.42514877382478       -3.35200096467729       -0.16773051505751
O           -9.73058639960660        0.00848210635631        1.17523922295480
O          -10.97661378370321       -1.52325446907559        0.14716378140760
