42
 energy: -62.486133506931 gnorm: 0.000480840140 xtb: 6.7.1 (edcfbbe)
N           -0.86540388511196       -0.35330670609539        0.50546304045898
H            0.07702213146917       -0.51451350237311        0.17143240337467
H           -1.02650727985059       -0.98570906022254        1.28463016483396
H           -2.04036080585033        1.12836152092275        0.97270898574562
C           -1.84636973999891       -0.60530869417669       -0.54873233672834
H           -1.50378845455155       -0.06610191000209       -1.44246949269694
C           -2.04623082776679       -2.07914997616027       -0.89664990987084
C           -3.14148674984615        0.05976297435002       -0.10802303666360
H           -2.44661668941074       -2.61714422650995       -0.04027612682528
H           -2.74539905471055       -2.17548385564411       -1.72040492468711
H           -1.09779827869874       -2.52788955996429       -1.18600770532392
O           -2.98781303261628        1.09198138927259        0.73249789972744
N           -4.24773463272873       -0.36521648015341       -0.53225516998149
H           -5.27899631975845       -1.48993069969820       -1.61159149182779
C           -5.49527691015720        0.27372070612140       -0.16555011403024
H           -5.54303825986319        0.47043512658238        0.90990736042855
C           -5.64546796905467        1.60366993153916       -0.93273810451042
C           -6.59078451128106       -0.69178551839585       -0.56515243234466
H           -4.80622870399617        2.24055844669120       -0.64547355663373
H           -5.55343955379789        1.38621254051069       -2.00070138014597
C           -6.95515067955974        2.35511891127133       -0.68297103443471
O           -6.24353003642197       -1.60096807721812       -1.48248190478694
H           -7.79148511068952        1.70128767849741       -0.94601117345944
C           -7.10069970571951        2.77137048839890        0.77806657677613
C           -7.00459570102157        3.58789959661950       -1.58489672581992
H           -6.25928718861684        3.39147061810105        1.08106469520056
H           -8.01585522330379        3.34212318110086        0.91389802192686
H           -7.14475267258152        1.90302290708228        1.42929144525114
H           -6.92520581029538        3.30553019763869       -2.63230615282518
H           -7.94237191966612        4.11947458838053       -1.44534813201080
H           -6.18696021430555        4.26604854329481       -1.34836563122159
N           -7.73475401023932       -0.59333127334024       -0.04287835800152
H           -8.98017102988768        0.42496921688013        0.80475597088237
C           -8.81576296168852       -1.47607088245096       -0.42491100205296
H           -8.83217069544220       -1.66152577645668       -1.50657542089957
C           -8.72711461117524       -2.82107789209324        0.30441324099958
C          -10.12902867734239       -0.79060481501929       -0.02127174173087
H           -8.66283150882962       -2.65703837256523        1.37828362529267
H           -9.61514750387509       -3.40730403774707        0.08555946860417
H           -7.84418870143405       -3.36277799753362       -0.02556573009743
O           -9.95433480928726        0.29597746705083        0.72146542095876
O          -11.20907296129016       -1.20878257834574       -0.33489453890069
