42
 energy: -62.486133526235 gnorm: 0.000477572293 xtb: 6.7.1 (edcfbbe)
N           -0.95674384329763       -1.15265025206294        0.42689064529212
H            0.02058159066995       -1.03755873200822        0.18911487576193
H           -1.14539121288094       -2.15088236967013        0.46248355037234
H           -2.20923024334870       -0.49196932151111        1.70796404860151
C           -1.81956023516635       -0.51608933635000       -0.56836535308602
H           -1.37773543280245        0.45696454573426       -0.81569649378549
C           -2.01583594594291       -1.31860508220032       -1.85280811831028
C           -3.15206768533634       -0.22213976343431        0.10463615471572
H           -2.41405246992615       -2.30544258337150       -1.62333748681145
H           -2.72550352516564       -0.80311125286229       -2.49106722270705
H           -1.07058875161180       -1.43333352806506       -2.37901350082624
O           -3.13026567803042       -0.27451234562047        1.45593153523645
N           -4.16000167121811        0.04331065795309       -0.59603120385231
H           -5.00577691235374       -1.82243004176884        0.70361697442273
C           -5.42555377506356        0.42099638700879       -0.00029722009745
H           -5.31212167824994        0.62702795988333        1.07711641120346
C           -5.94473206952173        1.66607176831717       -0.72461655864131
C           -6.36278477784910       -0.76034858263817       -0.12781790835208
H           -5.10766889001537        2.35622890573660       -0.84692052629408
H           -6.27057748563423        1.35924870631220       -1.71804791213279
C           -7.08673281466435        2.37614543786785        0.01161576298588
O           -5.90405492178593       -1.93149283503070        0.36496981428838
H           -7.78888592132878        1.61976126260051        0.37344583653048
C           -6.56468887394583        3.17368431270804        1.20562982358453
C           -7.82284914081691        3.30803027013175       -0.94926528525655
H           -5.87939233088020        3.95025987080443        0.87139281037114
H           -7.38891277427280        3.64936022781374        1.73205878380852
H           -6.03937923883849        2.53489606097501        1.91135894117607
H           -8.25066667804330        2.75326619146564       -1.78046266426263
H           -8.62905091774174        3.82450182902812       -0.43380631723783
H           -7.13949136596829        4.05450984398154       -1.34884768585765
N           -7.50367435774650       -0.62557783644947       -0.63688349076024
H           -8.63233589494697        0.34405795217481       -1.66200322486888
C           -8.43270981565611       -1.72437158895050       -0.76065603956466
H           -7.93991306836241       -2.64349409852859       -1.10136623207921
C           -9.14961144374192       -2.00813622784029        0.56402348800454
C           -9.48482874439775       -1.30755667183576       -1.80082424617115
H           -9.60633343195473       -1.09553641081190        0.94220390613190
H           -9.92426122679363       -2.75191718945125        0.40029359549941
H           -8.43940059708473       -2.38037708700852        1.29811806398266
O           -9.40590954347850       -0.02937720636755       -2.14836785479773
O          -10.30749746753755       -2.06343770010104       -2.23742745134843
