42
 energy: -62.486133520227 gnorm: 0.000479325220 xtb: 6.7.1 (edcfbbe)
N           -2.84849955369947       -1.97255705758242        1.85737779836691
H           -1.96744729548207       -2.44701684208435        2.01383851255559
H           -3.55527608282425       -2.68693086583173        1.69291240790388
H           -4.02923780831210       -0.64165614131758        2.56683256772489
C           -2.76517875346260       -1.08920693659687        0.69589136746326
H           -1.88721167169447       -0.44409673313835        0.83842892354443
C           -2.64981607427755       -1.80271768574646       -0.65007998395011
C           -3.98624097183460       -0.18640198400152        0.74904149947978
H           -3.43608674631759       -2.54739551539881       -0.74747042042019
H           -2.75668634105116       -1.07776389240932       -1.44951084187171
H           -1.68509917329067       -2.29869120725863       -0.73461650776468
O           -4.51731164316061       -0.03236417644427        1.97420457001044
N           -4.42086073222312        0.36951259367602       -0.29447376580291
H           -7.86233295828963        1.90137746823359        0.44817883301788
C           -5.61271971164360        1.18486524871485       -0.21379999809358
H           -5.50986922746823        1.93900117718024        0.58139500194319
C           -5.75793767976532        1.85979767960147       -1.59102245693523
C           -6.80981660260244        0.32318905128133        0.12939824389171
H           -4.79187030304565        2.31820134051782       -1.81001460340416
H           -5.90971054815680        1.06231240106676       -2.32046977719683
C           -6.85802760778565        2.91402325854381       -1.75273260954495
O           -7.96975857249524        0.94246722248280        0.43534697007547
H           -7.83805946818881        2.45432608870142       -1.58114264159274
C           -6.67354146450444        4.09387813931789       -0.79782467208851
C           -6.84424711039190        3.42379974364499       -3.19446738955970
H           -5.70617703693076        4.56163640307645       -0.96788962264016
H           -7.44702396961805        4.83993793037648       -0.96792388130728
H           -6.72150278379140        3.79687170067462        0.24861266983635
H           -6.99704330615623        2.60485166885822       -3.89298242101530
H           -7.63362487508902        4.15630938899277       -3.34708033946950
H           -5.89041523923945        3.89464228729724       -3.42123438056104
N           -6.67078807346022       -0.92462366069976        0.17806717926879
H           -5.52626172507612       -2.21766413600783        0.28890910316950
C           -7.69978628494704       -1.84517615908664        0.58512756909595
H           -8.29047414560952       -1.46194314606548        1.42693322034604
C           -8.64227338058636       -2.19479507193999       -0.57050854374774
C           -6.96543414506964       -3.12147740385643        1.02920133941544
H           -8.06594544861235       -2.52881041399795       -1.43103585527704
H           -9.31386364117036       -2.99005500955117       -0.25943977034377
H           -9.22269133404481       -1.31943777505554       -0.85116221098714
O           -5.67054880729790       -3.10337769796210        0.72039485090948
O           -7.49949296284102       -4.03886696578509        1.58572480405632
