42
 energy: -62.486133502426 gnorm: 0.000481417780 xtb: 6.7.1 (edcfbbe)
N           -1.16038133162622       -1.21417525304960        0.87850063665472
H           -0.16891348125862       -1.32799708614482        0.70661522866118
H           -1.54273692123468       -2.13257086513748        1.08711711417633
H           -2.36627098327157       -0.07021150827695        1.88674467061461
C           -1.83472414414755       -0.64647617605202       -0.28693211643577
H           -1.24830899482753        0.22453999003281       -0.60837827952168
C           -1.99477917078032       -1.60367460302841       -1.46711305284535
C           -3.17544774046856       -0.11119365893862        0.19579409552898
H           -2.57842971684025       -2.47394694420566       -1.17218569969466
H           -2.50594803903098       -1.09811594356153       -2.27981198581406
H           -1.01957917614444       -1.93751427969090       -1.81600536530516
O           -3.22050007176951        0.20381231718276        1.49703333793514
N           -4.11994862019074        0.03717871103715       -0.62426427071236
H           -5.03622290874480       -1.41302773538610       -1.42579327664908
C           -5.41757143581345        0.52867446248473       -0.20444859734728
H           -5.44271594770941        0.79147421966545        0.85847632261334
C           -5.71972361959121        1.77102044223171       -1.06459363184066
C           -6.41272429635496       -0.58594846588618       -0.45950074201780
H           -4.93685313312249        2.50343699747363       -0.85268525885139
H           -5.62113590834382        1.47732201520655       -2.11230482485247
C           -7.08805910667969        2.42007206258585       -0.84832859062061
O           -5.95838605848130       -1.62458299928493       -1.17813314522851
H           -7.86310977535601        1.68325920236851       -1.07456829180941
C           -7.27051649232840        2.89921948790073        0.58919332928738
C           -7.24434260967903        3.59377256321973       -1.81460701796927
H           -6.49369860755969        3.61473105671427        0.85212211714373
H           -8.23645435979387        3.38529528072868        0.70121634301383
H           -7.22621581237198        2.06707421655340        1.28607114957295
H           -7.13585447941893        3.26407520517084       -2.84529123960079
H           -8.22661679990602        4.04549161736971       -1.70237080156715
H           -6.49200651396015        4.35470627583256       -1.61630598408096
N           -7.60136424278146       -0.47164860562116       -0.05542078243747
H           -8.96497808665592        0.54050473841232        0.62857279059433
C           -8.58864370922673       -1.49522608252322       -0.31993019022395
H           -8.54780118542658       -1.83960279030187       -1.36145423450535
C           -8.41920340607810       -2.70620864611345        0.60449776699130
C           -9.96928380130523       -0.87771009002985       -0.05616786990820
H           -8.40987579460111       -2.38220530827773        1.64342827651688
H           -9.24829087174238       -3.39160301331527        0.45227185895756
H           -7.48406484588140       -3.21394922875531        0.38205315815963
O           -9.91816105985393        0.30910557569512        0.53608723879708
O          -10.99634799891770       -1.42920298522114       -0.34026516309381
