42
 energy: -62.486133516649 gnorm: 0.000479821314 xtb: 6.7.1 (edcfbbe)
N           -2.21864483113266       -1.49697908092572        1.86671266802170
H           -1.28710320735147       -1.89490362398559        1.87669924544759
H           -2.86679955060128       -2.23722845530102        2.12232900341212
H           -3.21126487259366        0.02857190611993        2.48814598908913
C           -2.55559022436808       -0.99632868042624        0.53439529290883
H           -1.72120616679882       -0.36130000362019        0.20690342561316
C           -2.80574877346103       -2.07944959240313       -0.51193929500462
C           -3.75461932734421       -0.07527820698351        0.69745149972860
H           -3.51926502839615       -2.80862733864158       -0.13625773484545
H           -3.21412541687645       -1.62320430982243       -1.40658075902253
H           -1.87737889189858       -2.59150146860764       -0.75669528056660
O           -3.89852749751430        0.44631508775925        1.93044729888068
N           -4.50611780854875        0.16518651375536       -0.28114651680545
H           -7.76863073189561        1.86743035971419        0.74796956508546
C           -5.62336244721909        1.07121582112547       -0.13853427259502
H           -5.45678633656784        1.79780963124512        0.67221564457525
C           -5.76549854795979        1.78620051589700       -1.49661217687467
C           -6.85662514931894        0.26444726930158        0.19359236670721
H           -4.80695249084561        2.26604606390335       -1.70485530339769
H           -5.90815122960180        1.00450431982129       -2.24427151875772
C           -6.88340207024866        2.82567284190610       -1.62199632054626
O           -7.94584114897389        0.92395443056206        0.64925254603122
H           -7.84644803290023        2.35691215742233       -1.39187192071661
C           -6.66301101688723        4.02010089103761       -0.69321204806754
C           -6.94782124903580        3.31384109249141       -3.06945512430730
H           -5.72718319530834        4.51628108160660       -0.94157740130265
H           -7.47044754400307        4.74043899165173       -0.80651548316657
H           -6.61743101292425        3.72940322174581        0.35496533688296
H           -7.13822738091942        2.48444263045857       -3.74608722990682
H           -7.74440789406349        4.04447699499061       -3.18990626960593
H           -6.00772793988850        3.78063656355392       -3.35484405250550
N           -6.80812498322021       -0.98604801755991        0.08899746082825
H           -5.76141935362621       -2.39197408140454       -0.06447730796252
C           -7.88699935595186       -1.87146440409893        0.44146162452162
H           -8.40144442140636       -1.55893317362488        1.35925978343678
C           -8.91356544816736       -1.99267358530378       -0.68923073868799
C           -7.24163850509533       -3.24893782000780        0.67137816533424
H           -8.41168717173586       -2.25419426073043       -1.61855756982937
H           -9.63267961094291       -2.76815505989187       -0.44067275271060
H           -9.43262980434104       -1.04639285951620       -0.82046396387987
O           -5.97723197784054       -3.30257829213570        0.26870981591430
O           -7.82442361761551       -4.17976176543438        1.15380923080277
