42
 energy: -62.486133519340 gnorm: 0.000479220781 xtb: 6.7.1 (edcfbbe)
N           -1.35183214479388       -0.32322746099609       -1.84690076507168
H           -0.56069788230123       -0.88111990409781       -2.14351288995243
H           -0.99122452410644        0.56340400075982       -1.50541839360541
H           -3.07946499501667        0.23154613248477       -2.47970041296075
C           -2.10303067459801       -0.99497625477223       -0.78889750851946
H           -2.25495658571887       -2.03414319770633       -1.11034329084639
C           -1.42538916897355       -0.98535843463406        0.57978609555607
C           -3.48348902304575       -0.34755873854648       -0.74198148553489
H           -1.24822812506727        0.03819895867617        0.90253422932456
H           -2.06866270807811       -1.46416350298286        1.30966793770539
H           -0.47473179600440       -1.51316828974591        0.53628637325169
O           -3.84570293785661        0.27081193728605       -1.87054698902247
N           -4.17247730134201       -0.45731713769145        0.30757858007602
H           -5.16757550715957       -2.27181247814685        0.36769442599800
C           -5.52581938731198        0.06029181291376        0.42588132005288
H           -5.70898221703881        0.08965770245460        1.51068448426131
C           -5.77447972554896        1.45482225357626       -0.15992565316967
C           -6.46592895916782       -0.98644083648247       -0.13906732287301
H           -4.86708281253747        2.04858888018794       -0.02837603966491
H           -5.95846096850915        1.35619301695191       -1.22941427406747
C           -6.95041305496567        2.18133056060311        0.50548200199017
O           -6.06073118673286       -2.26590091601033       -0.01311709657409
H           -7.75679219559620        1.45950304468941        0.66272329681551
C           -6.54497145740517        2.76721801973942        1.85682883454606
C           -7.45893790466951        3.29490954816242       -0.40802424414210
H           -5.77135623760758        3.52176690299088        1.72519087980075
H           -7.40022034992395        3.23642343828595        2.33768288387306
H           -6.16187755331166        1.99885564960259        2.52442479724003
H           -7.80107740376421        2.89480497666503       -1.35935621613894
H           -8.28924143760208        3.81945615107104        0.05897855548731
H           -6.66643036895524        4.01508188530311       -0.60288155440445
N           -7.56154791684753       -0.64797612048158       -0.65504960625521
H           -8.53388367568207        0.63088695855314       -1.49032051563284
C           -8.48911066741509       -1.61412644060260       -1.19565336437042
H           -7.97788761300075       -2.43887140501412       -1.70799697124125
C           -9.39069644687393       -2.19312063898963       -0.09983399526540
C           -9.37444009851201       -0.87056050346769       -2.20761533413279
H           -9.87470622632522       -1.38661625451468        0.44740353168960
H          -10.15116845647468       -2.82117971630177       -0.55525377614289
H           -8.79799829832007       -2.78594151735317        0.59244452918948
O           -9.23392379195167        0.44843074376196       -2.16169951014108
O          -10.13056152706123       -1.43062863413589       -2.95145043346391
