42
 energy: -62.486133494497 gnorm: 0.000483402860 xtb: 6.7.1 (edcfbbe)
N           -0.99210952449903       -1.34970090528447        0.22146137970332
H           -0.59978779633587       -0.73968590242594        0.93099473533680
H           -0.22474396074934       -1.74213912780242       -0.31080406932610
H           -2.59194406694957       -2.00747797468110        1.01168548681941
C           -1.90578197887465       -0.61230437674331       -0.65049475573975
H           -1.56831999094376        0.40351821556610       -0.89476034146567
C           -2.12971791833332       -1.39139426280856       -1.94713486189368
C           -3.24034167289264       -0.51387497563450        0.07248470070594
H           -2.47322712911260       -2.39973574565816       -1.72502403906751
H           -2.88005454815648       -0.88698825807930       -2.54828704596169
H           -1.20463377092746       -1.45389252004662       -2.51623647830244
O           -3.43147727018196       -1.49936305948106        0.98583805105898
N           -4.00745298390438        0.43106863677439       -0.20892810471176
H           -5.14287988174954       -1.32807328962822        1.71564450277136
C           -5.35221250191447        0.69152655199844        0.25526893794283
H           -5.27272167366535        1.11825586793017        1.26899735853800
C           -5.92783644432476        1.75027746644326       -0.69355432656412
C           -6.26031824560169       -0.52028884460547        0.37917937840704
H           -5.15121704460404        2.50162947986606       -0.84188145404565
H           -6.10992812736206        1.26758386534358       -1.65338369128705
C           -7.21030694860037        2.42708314789484       -0.19935619225855
O           -6.05436965981448       -1.38537114357618        1.38663927883968
H           -7.89767193922147        1.65567830455926        0.15933959350444
C           -6.92614034062983        3.39981125036863        0.94356833221896
C           -7.87655724375728        3.16901391379369       -1.35678942868761
H           -6.24142390227859        4.17956582192060        0.61634310219482
H           -7.84826437023817        3.87164917752340        1.27519296080287
H           -6.48529645721697        2.89194389553677        1.79785005984918
H           -8.14253354774486        2.48168229883433       -2.15605690241934
H           -8.78292530965221        3.66604634349807       -1.01905444735572
H           -7.20333114836274        3.92252479060601       -1.76010877658561
N           -7.22012783179572       -0.63959623104486       -0.42967017749883
H           -8.04712462962081       -0.13594230805953       -1.94535592402648
C           -8.15412922100461       -1.73759909437048       -0.36208130253317
H           -7.65036961072615       -2.69902347696505       -0.19974061903299
C           -9.18969926261028       -1.52980660796204        0.74944473645380
C           -8.89540400482969       -1.77472007025777       -1.70701354709600
H           -9.68324548979719       -0.56790144742507        0.62297484367417
H           -9.93367101456199       -2.31979946140853        0.70022022181868
H           -8.69904654076973       -1.55315522482748        1.71922833352880
O           -8.69338868986218       -0.69044189056409       -2.44596937517241
O           -9.60445757206746       -2.68260873988016       -2.04173492153660
