42
 energy: -62.486133502259 gnorm: 0.000481515408 xtb: 6.7.1 (edcfbbe)
N           -0.78046198376766       -0.49215147605942        0.21414903967205
H            0.12925960288566       -0.49327989291937       -0.23040415115944
H           -0.84046577871888       -1.32971985317895        0.78707103440014
H           -1.92774182384084        0.71325521859184        1.18837423997924
C           -1.85175385998131       -0.49039721930537       -0.78153095349095
H           -1.59538156267314        0.26386605093251       -1.53648529967925
C           -2.08883846927968       -1.83068884094828       -1.47392054028650
C           -3.11001165576128        0.01081374354217       -0.08764222283674
H           -2.28442807702118       -2.60789439489737       -0.73684565331555
H           -2.95169695219730       -1.74907670988329       -2.12634727514420
H           -1.21795976363590       -2.11529028801341       -2.06044837818286
O           -2.89309044459961        0.72911861981784        1.02845886772994
N           -4.23771622232216       -0.24019157762297       -0.58542610630071
H           -5.09917416809808       -2.00918298914959        0.59649452714574
C           -5.45327417995858        0.26886995175975        0.02119034328625
H           -5.29365412113855        0.50862191771131        1.08519173106058
C           -5.90773133642229        1.52886129254620       -0.72414454064103
C           -6.46459000203064       -0.85364897126649       -0.05340253598257
H           -5.03753829045297        2.17675683491738       -0.85074183653725
H           -6.24592969808032        1.22268618076181       -1.71427226887687
C           -7.01488645458729        2.30723868483718       -0.00400830594054
O           -6.05295397391296       -2.04022969521583        0.44330358845973
H           -7.75179098822850        1.59259313629168        0.37275286836208
C           -6.45393433603970        3.10410673829979        1.17237694493224
C           -7.70573483697186        3.25199836756550       -0.98582512740590
H           -5.74808367002450        3.85338071273954        0.81922349599421
H           -7.25617260596472        3.61294268238520        1.70170991722103
H           -5.93916780594764        2.45874403018898        1.87964820866710
H           -8.15895886537429        2.70036120491942       -1.80565860115482
H           -8.48661320508591        3.81706517591357       -0.48255925351901
H           -6.98760682755345        3.95670289605860       -1.40031058338008
N           -7.59265023619041       -0.67907880738090       -0.57933179750112
H           -8.66508266830611        0.31213477408300       -1.63896175255083
C           -8.56769742269272       -1.73864891651780       -0.68632456030298
H           -8.11042509214469       -2.68675700265561       -0.99671635479381
C           -9.31205556420189       -1.95860561158859        0.63521275772778
C           -9.58763037501816       -1.30292638332666       -1.75029215838677
H           -9.74603405055860       -1.02146052059748        0.97850361293889
H          -10.10682961425136       -2.68327287689258        0.48270082135809
H           -8.62365205822813       -2.32913187606324        1.39065352149679
O           -9.44825840204867       -0.03811765974614       -2.12744240230774
O          -10.43779342057408       -2.03239248872255       -2.17903782387802
