42
 energy: -62.486133531516 gnorm: 0.000477383969 xtb: 6.7.1 (edcfbbe)
N           -1.59246308390375       -0.72907242249545       -2.07135157002548
H           -0.91685302926398       -1.40506574018368       -2.40460619060475
H           -1.09364166906975        0.13412341435959       -1.87486633860099
H           -3.28601528028218       -0.02194220467385       -2.55282111090455
C           -2.26470014560510       -1.20302850303151       -0.86346578331191
H           -2.52263021655699       -2.25768498199623       -1.02223551534200
C           -1.43588724870538       -1.07240889959602        0.41287254521454
C           -3.58631408250007       -0.44437233583167       -0.75324620994202
H           -1.15157412507515       -0.03343471843365        0.56818712162000
H           -2.02448963841482       -1.39563554015154        1.26449230703367
H           -0.53527838618505       -1.67956247910031        0.34566283691327
O           -3.98779207613006        0.13903403161710       -1.88665917841274
N           -4.19124559621160       -0.45800832615259        0.35043304926860
H           -5.49832109548611       -2.07030716347634        1.31701013666277
C           -5.48076442339285        0.17544149716352        0.58375712240391
H           -5.51972086061652        0.32278835697442        1.67369265733743
C           -5.72338874602158        1.51337953639814       -0.11649989042900
C           -6.51020501016212       -0.87723809609100        0.23367983093046
H           -4.82298823079803        2.12228160719589       -0.00703877892447
H           -5.87615900759036        1.32573322589060       -1.17821661192985
C           -6.92634901858872        2.27881825083240        0.44781685479554
O           -6.33990667570157       -2.07193797807431        0.83917698037495
H           -7.75024593366900        1.57283140021535        0.58801471816552
C           -6.59992596544043        2.92906392338633        1.79108369255740
C           -7.36754130427613        3.34918894851574       -0.54907730284085
H           -5.79109361859354        3.64819868803415        1.67667527621104
H           -7.47046227957044        3.45417112532080        2.17762747714374
H           -6.29884160599826        2.19015869816293        2.52966350189464
H           -7.66449271706907        2.90118967876800       -1.49407210081470
H           -8.21272129754427        3.90984352590294       -0.15657751722057
H           -6.55391900861142        4.04625726242673       -0.73917898684196
N           -7.40997337857656       -0.64375541826034       -0.61155235010953
H           -8.04221147830365        0.40803623085091       -1.92485552658360
C           -8.37486674774297       -1.63655114287440       -1.01965056640042
H           -7.90945081673371       -2.61536973075783       -1.19218393853466
C           -9.49482917984975       -1.79683066817281        0.01408735423795
C           -8.99543328757435       -1.13799681116399       -2.33484098908290
H           -9.94324765138214       -0.82877052364218        0.22904252683095
H          -10.25697586872111       -2.46124012600397       -0.38314890377676
H           -9.09286986436634       -2.21463151469708        0.93375368252581
O           -8.66809691936665        0.11325635592630       -2.63008400410012
O           -9.72230468655542       -1.81097619974962       -3.01156510506996
