42
 energy: -62.486133510134 gnorm: 0.000480557991 xtb: 6.7.1 (edcfbbe)
N           -1.33241610209371       -1.26264506374249        0.99516468886494
H           -1.00779245389270       -0.44998023040266        1.50845946193266
H           -0.53142405218370       -1.85197215683060        0.80308311978815
H           -3.14706472544286       -1.43009690952111        1.67624057605344
C           -1.99436220545075       -0.86068471547985       -0.24426375749154
H           -1.48790450252443       -0.04247388109490       -0.77581234267957
C           -2.11382448816578       -2.06635875113944       -1.17910312935718
C           -3.39020191073276       -0.39602818695484        0.13328210344572
H           -2.67348003914032       -2.86417383951125       -0.69546231697356
H           -2.62239953361294       -1.77791988277170       -2.09403941592825
H           -1.12527892677796       -2.44109308672841       -1.43654113019013
O           -3.87256263364859       -0.91194874780833        1.27074980253526
N           -4.00797304009418        0.40603634983934       -0.61880875207222
H           -5.06434343868773       -0.93454111658239       -1.87377234972768
C           -5.36652574864531        0.79444643673899       -0.28168862645102
H           -5.45158374129668        1.04309338577475        0.78150082606469
C           -5.72639737580190        2.01155304874489       -1.15040861123978
C           -6.30910300488471       -0.35125887177420       -0.57069154861146
H           -4.97214760891645        2.77788936625049       -0.96279743408444
H           -5.63620230459277        1.71410337630055       -2.19793440823835
C           -7.12187498464828        2.59165573242700       -0.90598505518371
O           -5.92816487920448       -1.21441260524003       -1.53159315950137
H           -7.86085671723887        1.79539610127697       -1.03661037955256
C           -7.26378848521712        3.15773716362817        0.50453987819425
C           -7.40415509929092        3.68435346216354       -1.93628565771968
H           -6.52902555526825        3.94246831657470        0.67393595009480
H           -8.25592000804221        3.58160316671825        0.63808636298408
H           -7.12530620394217        2.38363589809593        1.25395565696285
H           -7.35041974520895        3.28708646498842       -2.94712789888747
H           -8.39785755993753        4.09797465902050       -1.78480844551771
H           -6.67900132161510        4.49037960013725       -1.84475862777466
N           -7.41442336841648       -0.41080770360708        0.02875315866087
H           -8.72207690180730        0.43536534939869        0.97204405345841
C           -8.38357080623243       -1.44297396208156       -0.26145480911976
H           -8.44947091540754       -1.65535277990859       -1.33648421112867
C           -8.05533140674059       -2.74293595185702        0.48039154257743
C           -9.74778411279480       -0.93465447703614        0.22773618396291
H           -7.94016556500601       -2.54348611628998        1.54376443025707
H           -8.86359699385163       -3.45399246313977        0.33461851670964
H           -7.12865909339833       -3.16269751940982        0.09684735723146
O           -9.67232109676293        0.17376529307629        0.95419481943418
O          -10.77943260163339       -1.49807996302598       -0.01198135913472
