42
 energy: -62.486133520096 gnorm: 0.000479147263 xtb: 6.7.1 (edcfbbe)
N           -0.75729862830339       -0.11444712602411       -0.09266123640002
H            0.10698337391059       -0.21927621973861       -0.60994732473348
H           -0.68564876745497       -0.69059707524591        0.74241211435650
H           -1.94374728292784        1.28729432339431        0.53006718081445
C           -1.90374930054628       -0.53878772424451       -0.89487939972951
H           -1.79561272838871       -0.08039742011425       -1.88620066391897
C           -2.04984197949034       -2.05023877342881       -1.05728830154085
C           -3.14278942344204        0.08273069733981       -0.26793399955590
H           -2.12010527432324       -2.52944774554220       -0.08247212215970
H           -2.95335042973969       -2.26695971984202       -1.61659029172255
H           -1.19255877497245       -2.45912559937792       -1.58808699406917
O           -2.91408228678423        1.17028070898524        0.48372566476192
N           -4.27498658256105       -0.41939523976565       -0.49032545908001
H           -5.18462263781715       -2.12687158817723        0.47355377083229
C           -5.47907306251731        0.16790100040090        0.07192481787181
H           -5.32614574853984        0.38442337207968        1.14080285041989
C           -5.86880820260112        1.46202855194862       -0.65156497265401
C           -6.53303842444465       -0.91136557919767       -0.04767152312148
H           -4.97407083474212        2.07994760204070       -0.74644051713057
H           -6.20459603255831        1.19236647572239       -1.65370632786321
C           -6.95752238223058        2.26683520157223        0.06752978909810
O           -6.14958270017393       -2.12975998877583        0.38556082618606
H           -7.73492341018645        1.57541143839126        0.40432119745000
C           -6.39177310737778        3.00152329660640        1.28113935114807
C           -7.58071551354649        3.27115876403644       -0.90038351908728
H           -5.61947280401259        3.70308285219538        0.97284972798371
H           -7.17797700976107        3.55738589387503        1.78668049666300
H           -5.95565064408720        2.30940081447267        1.99666556544301
H           -8.03724661201809        2.76534175213825       -1.74745958417162
H           -8.34840497234347        3.85529684174618       -0.39857813296797
H           -6.82185527533268        3.95506164157386       -1.27533811321296
N           -7.64526329234138       -0.68298206580683       -0.58836508430068
H           -8.69578547674789        0.39069599422871       -1.58979935349640
C           -8.64067516602991       -1.71501959742717       -0.76050661770530
H           -8.19829493421429       -2.64988047322113       -1.12803709125005
C           -9.39179347044613       -2.00547368429771        0.54337331281165
C           -9.64828332646180       -1.19722831411041       -1.79838615234246
H           -9.80298297925662       -1.08331428126691        0.94961346453650
H          -10.20374621321496       -2.69871358146733        0.34272747700992
H           -8.71273671988083       -2.44278124852804        1.27099447299255
O           -9.48371260544643        0.08503427096805       -2.09984049156264
O          -10.51064961860114       -1.88316430130089       -2.27254377582298
