42
 energy: -62.486133527098 gnorm: 0.000478050993 xtb: 6.7.1 (edcfbbe)
N           -0.94284410276402       -0.96012500666825        0.01310751821473
H           -0.48454170797357       -0.06615096609707        0.15546260889651
H           -0.25519161908637       -1.60633540287268       -0.35446091615914
H           -2.29130872131929       -0.97305684449300        1.36368548289913
C           -2.06999284629595       -0.82239322357332       -0.90952277396741
H           -1.88301847479404       -0.13274976081078       -1.74312796643778
C           -2.45721578149324       -2.19099543885012       -1.47127368168738
C           -3.24062050483226       -0.29279414570368       -0.10509951232375
H           -2.65502439025284       -2.88890461907290       -0.66018304854263
H           -3.35099051705866       -2.09324420964797       -2.07998186150684
H           -1.65286314273285       -2.58797641270092       -2.08672734414787
O           -3.17874768644810       -0.57933599795717        1.22162803242964
N           -4.16879980189569        0.32607675532373       -0.67675917192127
H           -5.06690280608524       -0.97049346076952        1.68804473117637
C           -5.32843561213617        0.80128872606437        0.05884037117227
H           -5.02589067713824        1.18816306755848        1.04448106984778
C           -5.98087395007091        1.90180051327987       -0.77822924797201
C           -6.23365035132651       -0.39168144732046        0.27706771732350
H           -5.23326958777992        2.67996087428767       -0.94276236982687
H           -6.22519145909541        1.46575773619528       -1.74625585454446
C           -7.23644796765242        2.51876667052193       -0.15568756029565
O           -5.92724648986763       -1.20641766423431        1.30606986256775
H           -7.92267793653386        1.71084082827938        0.11432339806983
C           -6.90884632984407        3.32479895812457        1.09982775643449
C           -7.92393951531151        3.41488507372361       -1.18425326687934
H           -6.18543528513398        4.10531351062034        0.87231733752190
H           -7.80819352734514        3.79640680448699        1.48936009750958
H           -6.49926148714762        2.69120491733282        1.88245192985593
H           -8.19620308892331        2.84566201228614       -2.06947098368142
H           -8.82815338195405        3.85135610518124       -0.76652012125827
H           -7.26108348694942        4.22342631629412       -1.48539971114759
N           -7.17691092303091       -0.62046162564858       -0.52408703809492
H           -7.96609847877461       -0.30645015547236       -2.11439439471458
C           -8.02685762361808       -1.78055259419157       -0.40214713614323
H           -7.45723393979469       -2.68593924446967       -0.15617003244338
C           -9.11118195848393       -1.57481951561401        0.66185599056104
C           -8.71672947321721       -1.97366394110337       -1.76128119363400
H           -9.67396511714091       -0.66785245690231        0.44910208854740
H           -9.78894433521372       -2.42371986646056        0.65261459975711
H           -8.65344744282654       -1.48708270653459        1.64416265614685
O           -8.55826503677847       -0.94311148363571       -2.58202193907604
O           -9.35369468727258       -2.95142649475107       -2.03965097799920
