42
 energy: -62.486133513154 gnorm: 0.000479899543 xtb: 6.7.1 (edcfbbe)
N           -1.48846617630515       -1.77364479499392        0.89444113511099
H           -0.48148576506009       -1.87357784023240        0.91170976544694
H           -1.88039884259216       -2.67854454630522        0.64780554877216
H           -2.94701154193281       -1.11235060300937        1.96286188119803
C           -1.90294640243361       -0.76657121839518       -0.07956830541269
H           -1.25498804121736        0.10878326664085        0.05276006263951
C           -1.83590707696209       -1.22181742707196       -1.53767877740502
C           -3.31028680673443       -0.32632719608182        0.29830652322422
H           -2.43336630318161       -2.12148050649173       -1.68014424549218
H           -2.22444085671795       -0.43706154554716       -2.17864162357260
H           -0.80809571189225       -1.43863898100254       -1.82094118581067
O           -3.68952141724730       -0.62794597474931        1.54692484151436
N           -4.01172698188072        0.30827858186954       -0.53728504661097
H           -4.90860629789208       -1.29745814375402       -1.38371589716615
C           -5.36405893782670        0.70423535762465       -0.19250250920356
H           -5.43501172941595        1.01836148619002        0.85512270589871
C           -5.72866637656924        1.87120273131701       -1.12799114078598
C           -6.29404458295052       -0.47561833706576       -0.39152678994570
H           -4.98012287981878        2.64979542491450       -0.96668626088719
H           -5.61572793160440        1.51783440300588       -2.15546195108945
C           -7.12693530591096        2.46527000950699       -0.94874151787354
O           -5.80284719465583       -1.52584658921257       -1.07704462545054
H           -7.86549251678958        1.68042753774718       -1.13233429419222
C           -7.33775632203173        3.01648058369716        0.45891869174219
C           -7.33978848004080        3.57317276980840       -1.97966723112722
H           -6.59620743302856        3.78120154945025        0.68180407118408
H           -8.32566832776788        3.46287432646057        0.54057822978724
H           -7.25933193162995        2.22892615525925        1.20307699709869
H           -7.20874771617992        3.19252317656264       -2.98989911030430
H           -8.34517083943560        3.97780965681866       -1.89515996578511
H           -6.62953597487692        4.38248056442081       -1.82269546824260
N           -7.48993922886083       -0.39927901108750       -0.00298713745085
H           -8.91066367702066        0.57610469726461        0.62828130331744
C           -8.42754366018918       -1.47488461889095       -0.23560123265909
H           -8.34713134752169       -1.87332315032008       -1.25535241799335
C           -8.22881689220359       -2.62360489425215        0.75972667542257
C           -9.83824876611974       -0.90383160756808       -0.03449904311461
H           -8.26541817023267       -2.24235542809184        1.77831314620610
H           -9.01832961017335       -3.35741987713065        0.62409022463380
H           -7.26335284499749       -3.09439641139220        0.59227478438296
O           -9.85062841088394        0.30232260314282        0.51933154320063
O          -10.83375594711301       -1.50413200783782       -0.33126726851272
