42
 energy: -62.486133515189 gnorm: 0.000479619514 xtb: 6.7.1 (edcfbbe)
N           -0.88029643106429       -0.84124036544727        0.28684600816052
H           -0.52448507656839        0.06079201100369        0.58590795984012
H           -0.09983746750599       -1.38246633582310       -0.06576450536422
H           -2.36091699982372       -1.17148270001615        1.44250567353857
C           -1.90689757005958       -0.67866106513016       -0.74276956135389
H           -1.69594195282747        0.12234771641390       -1.46298166176528
C           -2.09994968763746       -1.99471030600676       -1.49783796903931
C           -3.20314879396037       -0.35143285214043       -0.02721417678062
H           -2.31362650244067       -2.80167136989512       -0.79966128238333
H           -2.92958785151011       -1.89776661141283       -2.19171501331729
H           -1.20100425454819       -2.24494655344028       -2.05696099798757
O           -3.26323970368215       -0.83993829840253        1.24412797124579
N           -4.09742636882926        0.29937114191147       -0.61132591718364
H           -4.96872700539480       -1.50506636316140        1.10839210725579
C           -5.38246426742908        0.61829089190720       -0.01995625085792
H           -5.24073455910763        0.92365140731137        1.03118846926076
C           -5.99058764932869        1.76749505932954       -0.82572790476371
C           -6.27180740030153       -0.61008282325245        0.01385623348734
H           -5.19720060598279        2.49235428935441       -1.01526560869990
H           -6.30809598672600        1.36499410311581       -1.78700160129022
C           -7.16616189366312        2.46420325211814       -0.13146161172140
O           -5.84017250187789       -1.67420003652892        0.71194164829861
H           -7.82837280058327        1.69845447471518        0.28258004674837
C           -6.68604746078793        3.36547616624766        1.00503066114831
C           -7.95205640676902        3.29093657270850       -1.14747270225947
H           -6.03457822989263        4.14679967908997        0.61858163642331
H           -7.53327905242736        3.83899017528307        1.49570286816558
H           -6.13690264057413        2.80202142798788        1.75546087790709
H           -8.35605271504988        2.65970447512465       -1.93485157944732
H           -8.78029373038989        3.80175004807027       -0.66196610929362
H           -7.30823824316017        4.04042837308506       -1.60301827526975
N           -7.38259548496547       -0.58547721441037       -0.57912937419966
H           -8.48015990745804        0.19801656647278       -1.76850814229898
C           -8.28813998498179       -1.70992791360632       -0.57651535369972
H           -7.76652956757761       -2.65943394838499       -0.75050419455641
C           -9.06746773861872       -1.80761093685352        0.73999295175009
C           -9.29358638002726       -1.47523830808969       -1.71493507316277
H           -9.56385169040402       -0.86181895136341        0.94895089161458
H           -9.81562956658334       -2.59079451015327        0.65642881711765
H           -8.38857420439502       -2.04082621926608        1.55638242858412
O           -9.22492400459790       -0.25547695313105       -2.23296354283133
O          -10.07660092321316       -2.30783303521829       -2.07943374970430
