42
 energy: -62.486133505773 gnorm: 0.000481144873 xtb: 6.7.1 (edcfbbe)
N           -1.91949036004517       -2.13728583966419       -1.42102436638220
H           -0.99464921095611       -2.54722029936044       -1.37879330068623
H           -2.03649230587696       -1.74049613702224       -2.34883945176114
H           -3.76073135581543       -2.54238613140489       -1.06210245797896
C           -2.07648781385521       -1.09219333992116       -0.41265190746023
H           -1.69895820378592       -1.49559264861744        0.53604298628839
C           -1.35146538686458        0.21421128033935       -0.72789252281385
C           -3.57301653933465       -0.86340993187985       -0.23306849339392
H           -1.69665890930901        0.61046207547891       -1.68049820536255
H           -1.57015303230405        0.94326162695782        0.04452896230332
H           -0.27686607473494        0.05110012869356       -0.77862551615579
O           -4.35043892191573       -1.87818024846191       -0.65083282113031
N           -3.96852341693017        0.21143247155695        0.28372516828672
H           -5.20441698299968       -1.39304157845252        1.90831601927795
C           -5.35889502436669        0.55548511407465        0.49348168411021
H           -5.38830995877496        1.03337257223602        1.48426259014785
C           -5.75256446970831        1.58790258952660       -0.57260884986950
C           -6.30357884454847       -0.62631133392461        0.53462458316267
H           -4.90501018975545        2.26408082202508       -0.70068679184450
H           -5.90305297971131        1.05143961837987       -1.51030906436051
C           -7.00605902296878        2.39979217109898       -0.22877167416686
O           -6.05651816025100       -1.55599876736765        1.48559677933458
H           -7.76644714572515        1.71671661505129        0.15991622873926
C           -6.70830447925846        3.45999614823880        0.82943293080795
C           -7.54907627692997        3.06701899241670       -1.49130669796655
H           -5.96667309811425        4.16554633053120        0.46040278141270
H           -7.61251793880477        4.01188499424055        1.07545239389743
H           -6.32865601479979        3.01231177744754        1.74439655819594
H           -7.82782248631582        2.32504128119660       -2.23542599767250
H           -8.42907694460552        3.66140499949350       -1.25773797048732
H           -6.79786845717716        3.72460682813457       -1.92407211548011
N           -7.30831955861082       -0.66801874986290       -0.21978455824275
H           -8.12887888426689       -0.08938273013320       -1.70403854838044
C           -8.25016533104310       -1.76187492598639       -0.19739331827366
H           -7.74657934509817       -2.73284520191280       -0.11443715668051
C           -9.25311222869537       -1.62179606430760        0.95309039208870
C           -9.02376276141807       -1.70989931938965       -1.52379342676569
H           -9.73413380812577       -0.64631871878276        0.91084646387767
H          -10.01069464283026       -2.39531167306587        0.86465448667853
H           -8.74020804523731       -1.72406483129339        1.90610419369744
O           -8.80067023110540       -0.60040357331349       -2.21812377934039
O           -9.77088689285006       -2.57712891229689       -1.88318436264744
