42
 energy: -62.486133512668 gnorm: 0.000480040256 xtb: 6.7.1 (edcfbbe)
N           -1.61045103050107       -1.62887024681835        1.08535266855059
H           -1.31299246119866       -0.98514597589997        1.81095949182061
H           -0.82538344460020       -2.22677092724502        0.85700225877890
H           -3.49351367016878       -1.78870457396039        1.50637051312050
C           -2.07359390664146       -0.90229626097956       -0.09471771386621
H           -1.47372719372555       -0.01271311873452       -0.33308258290780
C           -2.08494358481078       -1.83258955122249       -1.30900393492292
C           -3.49786904017509       -0.45558135007720        0.18843078406266
H           -2.72180061035510       -2.69382146481337       -1.11825970589060
H           -2.45721118450477       -1.29699003984491       -2.17736212104549
H           -1.07788924144731       -2.18394429269602       -1.52384694399248
O           -4.13984953187913       -1.15387332328785        1.13333302792242
N           -3.99519178208780        0.49506715185538       -0.47362599303133
H           -5.12162176219858       -0.73824262404465       -1.95884449116604
C           -5.37552202505021        0.88357503587484       -0.23963785664976
H           -5.51999019313397        1.15682651897375        0.81062007255336
C           -5.68351967338663        2.08053406283615       -1.15253749813271
C           -6.30584368382686       -0.26515473005157       -0.55046557726938
H           -4.94798504020653        2.85610565757956       -0.93331165603176
H           -5.52740805148717        1.76685326742259       -2.18793746813628
C           -7.09764780095608        2.64928801219443       -1.00466752005049
O           -5.96069038650389       -1.05120380702560       -1.58997568314383
H           -7.81976562202370        1.84016263762417       -1.15475406728593
C           -7.32618272581463        3.24995417393299        0.37983457920658
C           -7.33058166696137        3.71169170867641       -2.07808067330066
H           -6.60232352238572        4.03872909885586        0.57464507219953
H           -8.32415520683205        3.67660190929211        0.44127508800874
H           -7.23620594164109        2.49450363526572        1.15510909660861
H           -7.20677009977932        3.29129332882477       -3.07355238667966
H           -8.33747428024320        4.11401992900550       -2.00071410153491
H           -6.62360160231384        4.53041661824116       -1.96068834648121
N           -7.36022776892288       -0.41212489421179        0.12016220638725
H           -8.63529130928485        0.32998203137243        1.17348470871333
C           -8.30420659182184       -1.46880764868666       -0.16511354395286
H           -8.43512770939970       -1.62629987069595       -1.24358000692920
C           -7.86883206732527       -2.78896973504364        0.47976839089997
C           -9.65169757989409       -1.04984129012235        0.44083743440965
H           -7.68218203960341       -2.63730890562181        1.54083490944536
H           -8.65601366817662       -3.52724360731405        0.35525679503102
H           -6.95655197230723       -3.14629041199871        0.00878970391597
O           -9.57356195218640        0.02855912672316        1.21089936712137
O          -10.67079263072276       -1.65340105901185        0.24972879811222
