42
 energy: -62.486133500069 gnorm: 0.000481171177 xtb: 6.7.1 (edcfbbe)
N           -0.80735234108115       -0.29708807128173        0.11660270092823
H            0.04777842835642       -0.65696788849930       -0.28954017468287
H           -0.81688475035530       -0.56607545221345        1.09690947493259
H           -1.83250442123792        1.32132553442064        0.20402333275975
C           -1.98157036864823       -0.84791862176143       -0.55800577172734
H           -1.80722389939997       -0.75308588935937       -1.63841615388277
C           -2.28324572203399       -2.30658840558100       -0.22137828681332
C           -3.15770364979547        0.06431389011184       -0.22387093056469
H           -2.44138796859216       -2.41704445161995        0.84935634906709
H           -3.18705972326993       -2.62288383468058       -0.73077000194686
H           -1.45644147459603       -2.94508132441904       -0.52638667840516
O           -2.81061737304555        1.30400335289657        0.15316219321105
N           -4.32499148936615       -0.39428543276846       -0.30566168061445
H           -5.46159283392397       -0.98512626674112       -1.98591087792019
C           -5.53342738202974        0.37241671015728       -0.08790450530224
H           -5.67938490021965        0.53151943326436        0.98463254534761
C           -5.56246489715965        1.72748572734222       -0.82176753547292
C           -6.65195589501444       -0.49832192612537       -0.61748053579111
H           -4.77404017281552        2.35931179350627       -0.41236955513115
H           -5.33446725524152        1.54864361472650       -1.87739726320117
C           -6.90367045751727        2.46181533194945       -0.71793743276484
O           -6.40605555574592       -1.09801951946609       -1.79391324859401
H           -7.70028450614134        1.79912652246899       -1.07188970588588
C           -7.21503958192967        2.86832191521498        0.71972047378407
C           -6.87168663865691        3.69863940674533       -1.61480273007220
H           -6.42570971207545        3.50660314653790        1.11164174249270
H           -8.15239275766209        3.41752983495896        0.75773421261138
H           -7.31086328349658        1.99665390261019        1.36070025779227
H           -6.68450114925640        3.42275553414549       -2.65031234094085
H           -7.82254531287357        4.22356510128184       -1.56882878649346
H           -6.08700021258227        4.38036448643797       -1.29306340676747
N           -7.70386058343764       -0.65960315812227        0.05613341236748
H           -8.86954719339222        0.02858447818434        1.25934727390863
C           -8.79300279782208       -1.48282994230230       -0.42355641249584
H           -8.93690651654812       -1.38839811128856       -1.50727885838344
C           -8.56282781558280       -2.95851025145750       -0.08111233887389
C          -10.07041082909531       -1.01042546003852        0.28635579540564
H           -8.37462286321312       -3.06626671512708        0.98506618706158
H           -9.44664490230061       -3.53105821517404       -0.34782017303184
H           -7.70500592160825       -3.33596699725776       -0.63196896977859
O           -9.84222810149830       -0.13484960430228        1.25800754374722
O          -11.16484647746672       -1.40861002218397       -0.00111412374970
