42
 energy: -62.486133507701 gnorm: 0.000480551308 xtb: 6.7.1 (edcfbbe)
N           -1.06828455545533       -1.08546821159057        0.72903195537238
H           -0.73460202482326       -0.27014912373562        1.23238281550470
H           -0.26150521010317       -1.62720647168443        0.44329671697123
H           -2.76819944655139       -1.38436240901167        1.58602404263222
C           -1.86814139625795       -0.68974861982416       -0.42822634352144
H           -1.48682354856545        0.19725937268650       -0.95214081421907
C           -1.95940756804963       -1.85024485712719       -1.42140673164217
C           -3.26484493709023       -0.37345122262301        0.08292880364062
H           -2.34774705295962       -2.74043034848097       -0.92943564553367
H           -2.61272529481013       -1.57797083844434       -2.24568225290361
H           -0.97459799751716       -2.07961201522480       -1.82296655032698
O           -3.58110470541994       -0.94552454598480        1.25958609729000
N           -4.01786762668383        0.37486002383519       -0.59622343439123
H           -4.80519348480705       -1.64368912265350       -0.78111759912581
C           -5.37376393263390        0.66647064015239       -0.18048315100369
H           -5.39040118097698        0.94705018557391        0.88258292798136
C           -5.78998854876976        1.86599010398753       -1.05249179099911
C           -6.29555980891786       -0.53631296845612       -0.31899473921142
H           -5.02394559367337        2.62798208485411       -0.89164829960903
H           -5.71495514247285        1.54781686999049       -2.09385811741613
C           -7.16694262917703        2.48808999062386       -0.81727651452297
O           -5.75520426215191       -1.73100262098936       -0.62144743719149
H           -7.92810106502330        1.78059872229848       -1.15101765676590
C           -7.40622536797132        2.82262729897064        0.65222184875980
C           -7.29257974785514        3.75160076380790       -1.66845767273980
H           -6.63150520427479        3.49288161971449        1.01994554007651
H           -8.36829655439221        3.31513830294887        0.77178990680776
H           -7.40552362488177        1.92233524303133        1.26076581408887
H           -7.11980825490889        3.52723072939510       -2.71826644041403
H           -8.28888550588360        4.17497922014830       -1.56901142607408
H           -6.56820886464514        4.50017399702733       -1.35364236995645
N           -7.54311747142691       -0.37100434438295       -0.23416890663615
H           -9.06471743479710        0.64266086629421        0.15898726159662
C           -8.45330234133202       -1.48425252582827       -0.39503938434520
H           -8.23165751171821       -2.06073599899872       -1.30174319988887
C           -8.42558010379630       -2.43164437936129        0.81180838151039
C           -9.87218411534517       -0.91161747596652       -0.49601214697416
H           -8.61855579713392       -1.87416018936273        1.72659873612515
H           -9.19219383948189       -3.19174840414811        0.68965260743285
H           -7.45203005887069       -2.90873824381333        0.88617498409376
O           -9.97368040242608        0.33824125830443       -0.05870109705299
O          -10.80823204482238       -1.54693822136202       -0.89538361623236
