42
 energy: -62.486133507257 gnorm: 0.000480476437 xtb: 6.7.1 (edcfbbe)
N           -1.39341003451675       -1.62196310978618        0.91372421865266
H           -0.38783111431736       -1.72961677235645        0.86593011810530
H           -1.80603461560363       -2.54391567962843        0.80005283474825
H           -2.75041936585803       -0.78466202048875        2.01043934846666
C           -1.87801805840085       -0.72537562445075       -0.13310099680618
H           -1.23492281755024        0.16406295230924       -0.12567692387852
C           -1.88593744840183       -1.32433992270788       -1.53918242160822
C           -3.26525741258016       -0.25855154738070        0.28484348329025
H           -2.48712688173749       -2.23218694758289       -1.56005243005238
H           -2.30912515443010       -0.60732052773263       -2.23509569446781
H           -0.87310183832961       -1.56967000581825       -1.85186779740523
O           -3.52920445884797       -0.36319604430162        1.59383998297091
N           -4.04966280675411        0.21954313528570       -0.57925032384885
H           -4.95133043736398       -1.32622054893619       -1.40965427224760
C           -5.38325203864835        0.65022072328206       -0.20363234019039
H           -5.43651312197856        0.94825815590773        0.84932322408784
C           -5.72955036660208        1.84063698556035       -1.11690974516559
C           -6.33371366439781       -0.50984976074840       -0.42008824778064
H           -4.96920559484064        2.60526122514165       -0.94282591488018
H           -5.62367208719279        1.50352328775729       -2.15052628219726
C           -7.11766896631359        2.45388999653664       -0.92435098391546
O           -5.85286883947976       -1.55454557152794       -1.11887763572226
H           -7.86915229539471        1.68384190733006       -1.11764811422480
C           -7.31492323009816        2.98664945292657        0.49230217072484
C           -7.31421552119921        3.58076580040374       -1.93784417035552
H           -6.56132005120830        3.73700885035310        0.72370251025876
H           -8.29582225028030        3.44617446455108        0.58504138836776
H           -7.24472900043759        2.18665580293234        1.22388405978574
H           -7.19757678552904        3.21213406693636       -2.95429736667408
H           -8.31030361475730        4.00503829291607       -1.84075850677611
H           -6.58621965622379        4.37284439378126       -1.77408356753868
N           -7.52605549854140       -0.42440712522943       -0.02215970225506
H           -8.92455573952782        0.56245188579471        0.63453102943583
C           -8.47976070345058       -1.48476358230788       -0.26027459213536
H           -8.42198692435360       -1.86125456111350       -1.28987795952944
C           -8.27846221130567       -2.65853728270771        0.70491492201058
C           -9.88025473416810       -0.90217664900749       -0.02260150744451
H           -8.28591926016872       -2.29965273316016        1.73226823418379
H           -9.08407848122908       -3.37503923467322        0.57116536694054
H           -7.32589158912217       -3.14274547803296        0.50510394514021
O           -9.86927730177451        0.29952919007073        0.54069681600961
O          -10.88785928582919       -1.49052566708690       -0.30219109549310
