42
 energy: -62.486133525282 gnorm: 0.000477774719 xtb: 6.7.1 (edcfbbe)
N           -1.61199880491082       -0.79872180895344       -2.08034282349589
H           -0.85598743518949       -1.42388874535449       -2.33122210919069
H           -1.22668936456029        0.13974893391714       -2.02002583217657
H           -3.41392185322578       -0.38132422002218       -2.60000141859851
C           -2.20508705853062       -1.17592405894680       -0.79922943217271
H           -2.36685510898885       -2.26160086496102       -0.82337835329264
C           -1.36241301060266       -0.81798597077767        0.42319961871902
C           -3.58508924455780       -0.52972706329064       -0.73733169485671
H           -1.17340739898173        0.25357256252332        0.44542333398490
H           -1.89828026399768       -1.08709601863570        1.32731504179295
H           -0.41080950503678       -1.34519467977906        0.39683359187610
O           -4.09699284981652       -0.18872672087661       -1.92459110293520
N           -4.14451151182240       -0.39388620757939        0.38370553115945
H           -5.28335062824598       -2.14253603047777        0.97846259849555
C           -5.48072720709005        0.16730944977515        0.52383626777672
H           -5.59194403880274        0.33883127745746        1.60500036491418
C           -5.71950585489372        1.48370695419920       -0.22216785172108
C           -6.47112370988846       -0.91316824064953        0.14530656402906
H           -4.80399768600553        2.07722480454080       -0.16404822730827
H           -5.90868950267600        1.25650658884402       -1.27079626270094
C           -6.88619034630431        2.29748575428010        0.35092401264439
O           -6.16144412459188       -2.15713841143427        0.56848125377766
H           -7.70860805019511        1.61142834968387        0.57306382287389
C           -6.48354984130928        3.01721121972942        1.63688013766822
C           -7.36451569490507        3.31679029411066       -0.68171334863851
H           -5.68376030558180        3.72800214069028        1.43783330436147
H           -7.33070321283603        3.56314739529689        2.04564333080745
H           -6.13740817260229        2.31710012274359        2.39328693238156
H           -7.71056027173446        2.82370316075956       -1.58665091515433
H           -8.18506308489756        3.90700209902734       -0.28058140528953
H           -6.55485839602225        3.99390291068366       -0.94679321469481
N           -7.50317201518924       -0.63747133556023       -0.51653104428379
H           -8.35556342128829        0.50469990116533       -1.61992982797967
C           -8.46481075207707       -1.64094717165963       -0.90779978531378
H           -7.97972898819053       -2.56387433730606       -1.25032856527992
C           -9.42301136252563       -1.98226763766994        0.23840859029930
C           -9.28221712198371       -1.04866443015491       -2.06682869055815
H           -9.87818332993310       -1.07275781230347        0.62574864720502
H          -10.20350334990662       -2.64107288607222       -0.13145598677000
H           -8.88035387025987       -2.47717515792199        1.03997555289859
O           -9.05392160796619        0.24299925387060       -2.26724873724169
O          -10.06368190148836       -1.69124919474657       -2.71139675814269
