42
 energy: -62.486133522767 gnorm: 0.000478808021 xtb: 6.7.1 (edcfbbe)
N           -1.80425564913902       -1.69422207483140        1.20471537602969
H           -0.81749805990296       -1.91974749570061        1.18676881037046
H           -2.31852929570798       -2.56936653273613        1.25427477695264
H           -3.05270984128003       -0.56454820073237        2.11862548101004
C           -2.19760861790864       -0.95317866982179        0.00799617210548
H           -1.44275292292618       -0.17453258292113       -0.15953260309245
C           -2.32881998704594       -1.80594978705973       -1.25296948217181
C           -3.50322491551471       -0.23775051882531        0.33044877197601
H           -3.08368219057350       -2.57627352003087       -1.10691095919219
H           -2.63224496400861       -1.17880668236241       -2.08426754088473
H           -1.37911339021900       -2.28132244075047       -1.49055759696196
O           -3.77295315532092       -0.10948849438034        1.63619134652226
N           -4.21477680263255        0.20472073390973       -0.60914688574244
H           -5.73853449085343       -0.31994135968810       -2.34257158215485
C           -5.47065545039849        0.87914651166972       -0.32923962660005
H           -5.55895842971822        1.16177019413599        0.72487847665426
C           -5.58987445933937        2.11301787857745       -1.23288769383135
C           -6.54068535833918       -0.14008241483633       -0.63881781591493
H           -4.87058017406444        2.85690691448944       -0.88509178589313
H           -5.29927135115097        1.83472136244700       -2.24978844371104
C           -6.99495274655664        2.72510700397621       -1.25477208984486
O           -6.51806941871498       -0.65899357653638       -1.88027576675500
H           -7.70223005594469        1.96854733452044       -1.61356106613283
C           -7.43677954796720        3.17293505858743        0.13607382182360
C           -7.01974282433544        3.90638361919548       -2.22327028090637
H           -6.70484625329081        3.85309185640176        0.56659746282964
H           -8.39152557034637        3.68995898582888        0.07629915604444
H           -7.55587150932508        2.32004593673957        0.79831000846695
H           -6.72233458885069        3.59622246642720       -3.22270285093522
H           -8.01970801303499        4.32910348977044       -2.28064447137278
H           -6.33747539879911        4.68452151868783       -1.88762265572916
N           -7.33558200811008       -0.50683110196647        0.26546623196301
H           -8.09172332321171       -0.24749061007212        1.89110950754557
C           -8.34465452371728       -1.51703233412339        0.03191690789554
H           -8.87818798331148       -1.34857201972964       -0.91189233752610
C           -7.74411004859511       -2.92694898490043        0.01499610164722
C           -9.34961736811045       -1.43050923999961        1.19049617036370
H           -7.17101064107907       -3.09499976093883        0.92488849864331
H           -8.54587773369567       -3.65768438524932       -0.04164428274829
H           -7.08898489463186       -3.03985948078231       -0.84521117074105
O           -8.95493057128559       -0.63160274874505        2.17399599034551
O          -10.38124672843108       -2.04249166864252        1.20826492492635
