42
 energy: -62.486133513726 gnorm: 0.000479512315 xtb: 6.7.1 (edcfbbe)
N           -0.76692003621152       -0.06522340349797       -0.59653672530990
H           -0.00411161777202       -0.32165123562986       -1.21103087903419
H           -0.51393488392451       -0.35667477234405        0.34366728042435
H           -1.88572394583524        1.45100337836571       -0.22306359763119
C           -2.01096515489072       -0.71684570131509       -1.00319829879411
H           -2.09727315348170       -0.60854886440623       -2.09178140270918
C           -2.10714861603303       -2.19692204479481       -0.63908527730450
C           -3.15890408550818        0.08519702765342       -0.40235027830961
H           -1.99677572532502       -2.32754591502636        0.43611163020047
H           -3.07798166373005       -2.57799460575262       -0.93721694838762
H           -1.32823092628921       -2.76431572214707       -1.14421767336188
O           -2.84558990635255        1.34488552913461       -0.05973346841713
N           -4.28509076031387       -0.45895880871949       -0.28190627863670
H           -5.34249870673500       -1.93951958729546        1.16879069702656
C           -5.45572958842038        0.22717641336775        0.23632484185846
H           -5.28032893592528        0.50434282022767        1.28690772088538
C           -5.83221055443089        1.47862611717182       -0.56456046906884
C           -6.53430931213164       -0.83550000015149        0.18919623091692
H           -4.95453366762399        2.12257038386562       -0.62762085072077
H           -6.09272702090417        1.15534566930827       -1.57345312785742
C           -6.99255880144384        2.27612691416721        0.04177126123272
O           -6.27331406010966       -1.94784105311835        0.90748549796415
H           -7.78955017549170        1.57996091599629        0.31780043915098
C           -6.55250652653979        3.03980862560828        1.28926834928657
C           -7.53881740433325        3.25362020245654       -0.99753353645480
H           -5.74676009824277        3.72973807481155        1.04685457754876
H           -7.38403986601124        3.61237303595464        1.69383989995631
H           -6.20262446457387        2.36426471524153        2.06596710239110
H           -7.90390129877219        2.72430977624781       -1.87428252506203
H           -8.36105633769415        3.83080439958276       -0.58123827697686
H           -6.76012151991555        3.94561400992266       -1.31174580659123
N           -7.53976662227978       -0.71119304220148       -0.55480654734253
H           -8.39907582229717        0.17495024857124       -1.86565720233865
C           -8.53924789856836       -1.74533658274620       -0.68187344880980
H           -8.08625734156410       -2.73758819746485       -0.80241540876392
C           -9.48253265669686       -1.77683871729669        0.52569460066807
C           -9.36559852136704       -1.41517126770767       -1.93464046600436
H           -9.91434612723958       -0.79077412902098        0.68643067215442
H          -10.28176543135626       -2.48835743195228        0.33860652498870
H           -8.93326327170034       -2.07382614445159        1.41555496928175
O           -9.11687141638609       -0.20728243254191       -2.42571600982501
O          -10.17122733584479       -2.16883444275880       -2.40567271713763
