42
 energy: -62.486133508417 gnorm: 0.000480297704 xtb: 6.7.1 (edcfbbe)
N           -1.15583407670179       -0.86048723243628       -1.50419449782646
H           -0.30015288340913       -1.40134650776840       -1.48382301183342
H           -0.89590054949393        0.12227656521101       -1.52446370645454
H           -2.78984352478707       -0.84928110465063       -2.44114963370036
C           -1.97717186186650       -1.13056168734795       -0.32352578675593
H           -2.01471453150807       -2.22058233581859       -0.19658327457797
C           -1.47564120057153       -0.49091496083643        0.96720429110158
C           -3.39708979943796       -0.68753421907492       -0.65546978401417
H           -1.40294591633898        0.58786677994759        0.84746504361374
H           -2.17812623692532       -0.69841948537936        1.76724952947995
H           -0.49701116563352       -0.88585588010030        1.23204305391803
O           -3.64674243247867       -0.66656274396842       -1.99867956121780
N           -4.18070114932419       -0.39402090324985        0.26950393860177
H           -5.27399897776712       -1.24120136733736       -1.92118684926670
C           -5.54932385473807        0.05551974911952        0.22849744941885
H           -5.88704023270319        0.03341624173244        1.26823984843141
C           -5.53997077535346        1.52290309150108       -0.27368687270942
C           -6.55644721617596       -0.73531028328434       -0.58384612537093
H           -4.75466723060426        2.04283156319168        0.28071744721887
H           -5.25176321902353        1.51187026865742       -1.32878606850208
C           -6.85457903049835        2.29024175653522       -0.11881199354319
O           -6.19021760280204       -1.44048040011140       -1.65890565005845
H           -7.65286565726336        1.72548212370246       -0.60777535804774
C           -7.22529510632140        2.49130873423565        1.34781097559063
C           -6.72999863206130        3.64556285426828       -0.81443398391896
H           -6.44840172274002        3.05419973371149        1.86164309649554
H           -8.15798061224101        3.04435836419020        1.42356324872708
H           -7.35549653307453        1.53944778917749        1.85447022146804
H           -6.49570803803671        3.52112126008647       -1.86932392764461
H           -7.66441482416131        4.19519013607106       -0.73594953885462
H           -5.94272452564383        4.23992617947370       -0.35469238407332
N           -7.76327998914693       -0.63582000783615       -0.21742563457361
H           -9.05423545328022        0.22528378376661        0.72866858195726
C           -8.82800138267566       -1.28548683577781       -0.94743062268332
H           -8.70122844478353       -1.18489550611347       -2.03362243930868
C           -8.92536186216440       -2.77551820425597       -0.60131566878516
C          -10.14173567421540       -0.60515369374649       -0.53773782661316
H           -9.00311375809274       -2.90119523645694        0.47670576403925
H           -9.80732298033266       -3.19730141378646       -1.07491446191586
H           -8.03897306928274       -3.29526114367329       -0.95605215662279
O          -10.01265319017023        0.21810195610863        0.49603884310011
O          -11.18751644470266       -0.81570205813763       -1.08708850424396
