42
 energy: -62.486133510835 gnorm: 0.000479838120 xtb: 6.7.1 (edcfbbe)
N           -1.12748705093868       -0.18932178791429       -1.65147620727954
H           -0.41302968860768       -0.75803107931908       -2.08888330929473
H           -0.66887566410584        0.41719160875618       -0.97667789215242
H           -2.62052635376168        0.87882151335865       -2.16493537756074
C           -2.12490043675517       -1.01900411019426       -0.97812912248007
H           -2.39875367843625       -1.82593787732955       -1.67090033062374
C           -1.65341363643083       -1.62606022268324        0.34230798460607
C           -3.37572471549479       -0.15797195716181       -0.80001797983829
H           -1.41227718546636       -0.83741974314860        1.05282149623583
H           -2.43748884069180       -2.24271751717397        0.76914316390927
H           -0.76929755489945       -2.23968505591859        0.17972629769946
O           -3.45321983662880        0.87380356579840       -1.64804453814339
N           -4.20403176727308       -0.48863871385126        0.08504327482879
H           -5.25277785762922       -2.15146246518369        0.69641058545818
C           -5.48103691365922        0.14003886516062        0.36782104586487
H           -5.50278152049847        0.23595585627458        1.46456222094988
C           -5.78396619357675        1.49974176072198       -0.26297538483707
C           -6.50266799044116       -0.92446047040143        0.00892693243911
H           -4.89689133658543        2.12866577325489       -0.17777629439301
H           -5.98781458323588        1.35104942208013       -1.32332127824241
C           -6.96557384044995        2.22112564841611        0.39862520296016
O           -6.17763066509592       -2.17133033369161        0.39774829195487
H           -7.76664176466367        1.49677739574606        0.56977156134645
C           -6.56178215653199        2.83313058976495        1.73910089415109
C           -7.48529238279254        3.31661730678778       -0.53056822518619
H           -5.77362741649376        3.57009305138839        1.59668375575640
H           -7.41304668264296        3.32945224506947        2.19932379585667
H           -6.20132187219671        2.07586667179254        2.43133553258908
H           -7.83603562324673        2.89718681015834       -1.47016831377758
H           -8.31151520312728        3.84974373951538       -0.06603649902265
H           -6.69515180353250        4.03258851139835       -0.74758199808882
N           -7.54196042567425       -0.63251273154098       -0.63551464062125
H           -8.43303998262945        0.53334587550470       -1.68721249135128
C           -8.51710096077356       -1.62771687540353       -1.01665744329599
H           -8.04332234049783       -2.54690639314076       -1.38463079907698
C           -9.44526942466209       -1.98387981246157        0.14957769995858
C           -9.36322290243271       -1.01589431470716       -2.14399600347204
H           -9.89269426121272       -1.07996668699196        0.55844802509161
H          -10.23347082455310       -2.64103368991822       -0.20677917399776
H           -8.88031777772626       -2.48569991674389        0.93124652375593
O           -9.14444287187771        0.28072527569507       -2.32355110150829
O          -10.15676727640126       -1.64829555349609       -2.78385483664024
