42
 energy: -62.486133512884 gnorm: 0.000479068821 xtb: 6.7.1 (edcfbbe)
N           -0.83878390025051       -0.27616108122536       -0.93465817268326
H           -0.07069457164346       -0.86980900576266       -1.22339022338126
H           -0.53350062681962        0.24155092540881       -0.11485975804788
H           -2.08625677135558        0.95007354605925       -1.68727533274163
C           -2.02183206428595       -1.06952158121142       -0.60613463878358
H           -2.16279450864099       -1.78971431043795       -1.42372629157373
C           -1.93980190545729       -1.82448548887365        0.71775039858778
C           -3.22120540625593       -0.12159937645538       -0.64493970399269
H           -1.76259105917112       -1.12820328333504        1.53460026682186
H           -2.87895273993528       -2.33414244805639        0.90367154571313
H           -1.13219881071063       -2.55314879659013        0.68982638688521
O           -3.02509465759117        0.96884000020667       -1.40696983925423
N           -4.25205523861871       -0.44191761658741       -0.00383322707721
H           -5.21358771016630       -1.34041768073491       -1.70740298746512
C           -5.51770251252745        0.24507175224519        0.06750439663993
H           -5.74734886092767        0.32021068280204        1.13504594335873
C           -5.59416726896074        1.64485956519959       -0.57453086207839
C           -6.56202371881946       -0.65693658365009       -0.56042211690658
H           -4.78512027548970        2.24799383311548       -0.15850596099242
H           -5.41518342273001        1.54794456286393       -1.64776063887180
C           -6.92324509563214        2.37542379715235       -0.35880997781087
O           -6.17208682390677       -1.42038797524314       -1.59727034880400
H           -7.73714533372285        1.74476119164207       -0.72809915821118
C           -7.17665932294836        2.68368368194275        1.11460178767503
C           -6.91767095342060        3.67297174997520       -1.16653109755860
H           -6.36735742405279        3.28762252916910        1.52062016111789
H           -8.10556680407394        3.23787652848222        1.22388693892461
H           -7.25864844291986        1.77252358957146        1.70069446350147
H           -6.76520688184138        3.46995477540615       -2.22410418573283
H           -7.86524690383213        4.19346576459306       -1.05229012269414
H           -6.12067480806271        4.33061923211005       -0.82526834329746
N           -7.74190635296143       -0.63097224206969       -0.12041296345548
H           -9.05433765519294        0.26329418509187        0.78760096801690
C           -8.79326311077799       -1.42373842683231       -0.71806378537220
H           -8.71950220593184       -1.44948867361571       -1.81268184357787
C           -8.77680240434940       -2.86137637898997       -0.18721872791770
C          -10.13102220664322       -0.77862127519457       -0.32744437352214
H           -8.81468935548860       -2.85560364952682        0.90012716814035
H           -9.64043113651293       -3.39612670120460       -0.57207908619627
H           -7.86690525051090       -3.36278659568785       -0.50731932655062
O          -10.01598268286681        0.16811775437337        0.59608606372170
O          -11.18094407622972       -1.11372625518121       -0.80107836464460
