42
 energy: -62.486133504464 gnorm: 0.000481374949 xtb: 6.7.1 (edcfbbe)
N           -1.44661391426490       -1.06259255334701       -0.96702804765934
H           -0.81988464784547       -1.85484923444770       -1.03515198043174
H           -0.92131069006393       -0.29070468813584       -0.56537125881930
H           -2.69739285720901       -0.14978480839354       -2.05015533839084
C           -2.59719791212737       -1.37328487871473       -0.11798590991155
H           -2.95682431809912       -2.37008219737495       -0.40292830896531
C           -2.31039505068477       -1.35143145202702        1.38052602937375
C           -3.70598135334343       -0.39360016771176       -0.48537007668169
H           -1.91583069724569       -0.37997160865726        1.67215177635929
H           -3.23408098512111       -1.52200846981155        1.92264343319145
H           -1.58725006606885       -2.12117201807068        1.64229114185752
O           -3.56805587511571        0.15354929996315       -1.71537922185393
N           -4.65810579731328       -0.22636799837329        0.31351040914745
H           -6.04941149819038        0.24806137559061       -2.27784898856235
C           -5.78084891754069        0.66518122876377        0.09833731060073
H           -6.15030265351545        0.86480771124647        1.11072346924734
C           -5.50299605507873        1.99774543393049       -0.60483803411802
C           -6.82964846301360       -0.18713957760587       -0.58446711238831
H           -4.75786689815173        2.53409809891765       -0.01203745525256
H           -5.06271628017737        1.83509070395765       -1.59133720786333
C           -6.75793106390456        2.86812798184070       -0.75612683733077
O           -6.78478665495857       -0.27398453315458       -1.92882658646296
H           -7.53273178207649        2.28872976134255       -1.27168355106008
C           -7.31270232089573        3.31226954914925        0.59526938428739
C           -6.42302146531821        4.09118146238324       -1.60953743289245
H           -6.54330084224055        3.81893022106597        1.17424284508889
H           -8.14022455266899        4.00255517172194        0.44875732191196
H           -7.68035663561136        2.46546715979773        1.16826677165105
H           -6.05528485452899        3.79521563208194       -2.58993712067172
H           -7.30585036844353        4.70994613391297       -1.75022244383012
H           -5.65759670121440        4.69240776408683       -1.12318703967715
N           -7.61084883174261       -0.87244410966189        0.12556013342073
H           -8.40251522892232       -1.19742679439132        1.72381321467707
C           -8.56026687984165       -1.79581050177942       -0.45429490390894
H           -9.07810340937055       -1.36292331222192       -1.31939525336206
C           -7.88413685939169       -3.10249628653941       -0.88494213770440
C           -9.59564260298417       -2.12328285339557        0.63201202284398
H           -7.32040669653085       -3.51799707560032       -0.05207419738346
H           -8.64421251121701       -3.81442509493773       -1.19424376245390
H           -7.20573839689223       -2.91357786256050       -1.71304638509704
O           -9.25519988178635       -1.68057054253006        1.83582654359124
O          -10.60261778756109       -2.73746186647284        0.41241997348254
