42
 energy: -62.486133513211 gnorm: 0.000479326930 xtb: 6.7.1 (edcfbbe)
N           -0.84614191432776       -0.31750412985438        0.45488609957374
H            0.08720966521240       -0.51340699879135        0.11376952871346
H           -1.00471224865916       -0.90733672930251        1.26742907147580
H           -2.00566937100090        1.20913222918168        0.85982112442280
C           -1.84854250062465       -0.60572833587477       -0.56947211817369
H           -1.52407099535414       -0.09518725762203       -1.48695428053460
C           -2.05307087002520       -2.09029453788667       -0.86572669670895
C           -3.13368234031843        0.07473658134757       -0.12520309063120
H           -2.44952910442521       -2.59804669071513        0.01061494383091
H           -2.75637346431348       -2.21447452126463       -1.68229236216181
H           -1.10664263169497       -2.54967139364501       -1.14484810300774
O           -2.95875335903217        1.15635427922135        0.64790425379668
N           -4.24904839185653       -0.38697167560861       -0.47998814432931
H           -5.26718410964860       -1.51542607147786       -1.55477558492567
C           -5.49631718671226        0.26099919742820       -0.13005362766423
H           -5.55385667746855        0.46154215067306        0.94392146901393
C           -5.63924828753324        1.58761442197773       -0.90521144255886
C           -6.59231848942886       -0.69976115519871       -0.54143106263577
H           -4.80060621978152        2.22489094579736       -0.61839832826415
H           -5.54325847872462        1.36285202451499       -1.97147317335639
C           -6.94857887961702        2.34319370072474       -0.66685046272523
O           -6.23609256452863       -1.61541309173796       -1.44839597655006
H           -7.78456406124169        1.69160985607331       -0.93627770280516
C           -7.10516233897639        2.76179297844102        0.79227436281766
C           -6.98749550126360        3.57487030157434       -1.57082600660823
H           -6.26477065629084        3.38027676075889        1.10132565159347
H           -8.02004888071073        3.33496781609293        0.91941177460936
H           -7.15720663447314        1.89462359307572        1.44449026016138
H           -6.90177073391037        3.29065241551048       -2.61724824507753
H           -7.92480275312754        4.10926298562165       -1.43844383743387
H           -6.16952890029070        4.25090605705081       -1.32963536764305
N           -7.74383080046331       -0.59218197539087       -0.03756685794635
H           -8.99305598338522        0.43100463032571        0.79533141162243
C           -8.82473038940827       -1.46733634250613       -0.43727571266161
H           -8.83158540590213       -1.64057256127204       -1.52112548587855
C           -8.74907075841133       -2.82091079616335        0.27732868354173
C          -10.13920032266409       -0.78016791452243       -0.04010408403743
H           -8.69381047735476       -2.66910972674402        1.35348148844396
H           -9.63800118770385       -3.40004643980890        0.04386504755741
H           -7.86584153028032       -3.36305358693291       -0.05093264230585
O           -9.96719644189521        0.30563604594430        0.70427124613558
O          -11.21802908256562       -1.19634290223889       -0.36068102625900
