42
 energy: -62.486133512891 gnorm: 0.000480030527 xtb: 6.7.1 (edcfbbe)
N           -0.73191486202333       -0.18110004937047       -0.28669782010063
H            0.06958254818897       -0.58542366436800       -0.75469721669094
H           -0.57230679785772       -0.25469263613171        0.71428113563365
H           -1.79460719865053        1.38426966996838       -0.32362735255848
C           -1.96288804907825       -0.88265145762136       -0.64599481401399
H           -1.94629148681319       -1.03294180271512       -1.73352855265671
C           -2.14812087397970       -2.23082384873884        0.04749909292711
C           -3.12561390049008        0.06588769850326       -0.35308926626111
H           -2.13706753980426       -2.09861352964165        1.12747301127236
H           -3.10391662057166       -2.66117177622113       -0.23124237780882
H           -1.35019854311748       -2.91522029796231       -0.23382638470601
O           -2.77130416210228        1.35347099450984       -0.23712202665565
N           -4.27723673626642       -0.42229915333028       -0.23481923582701
H           -5.27585206497832       -1.29468146609821       -1.72161679556193
C           -5.51420792295364        0.29998603269687       -0.03881348175211
H           -5.67433683633785        0.42768651008877        1.03582841438566
C           -5.59884570753521        1.67052542348234       -0.73924303933325
C           -6.59819652309677       -0.60613248275477       -0.58991033368860
H           -4.80443216110435        2.30591595711454       -0.34780007067682
H           -5.41006487024283        1.51791049150911       -1.80634147965855
C           -6.93993353632850        2.39097778101493       -0.56598473431053
O           -6.24399662427214       -1.35902715606414       -1.64287287147091
H           -7.74383644194671        1.74220280242771       -0.92644389031195
C           -7.21244081088351        2.73749454848163        0.89543528103152
C           -6.93515284309345        3.66555575728980       -1.40926864170906
H           -6.41540697574479        3.36437500419486        1.29066821551672
H           -8.15068218048603        3.27990079195501        0.98104622115863
H           -7.28565882350426        1.84121203935025        1.50504484480390
H           -6.77240894422410        3.43515718946100       -2.45978864632078
H           -7.88676549243159        4.18297282662515       -1.31722773061833
H           -6.14530047486512        4.33698714489096       -1.07837581344233
N           -7.73314104334646       -0.63500534781262       -0.04348781558627
H           -9.00687116250697        0.27935439235255        0.87987665346222
C           -8.80028493498647       -1.46730234377442       -0.55502440447446
H           -8.79130561517928       -1.52739958942822       -1.65074450183135
C           -8.71725161832492       -2.88545667610368        0.01944111455123
C          -10.12773480309868       -0.83784476209728       -0.10710686473957
H           -8.67638650195473       -2.84324858819000        1.10587106334691
H           -9.59597764870446       -3.44769003571255       -0.28367277049336
H           -7.82317526022294       -3.38182474232849       -0.34956242277011
O           -9.97785625906344        0.15859062610948        0.75725903471306
O          -11.19680295540843       -1.22190811940046       -0.49285771795619
