42
 energy: -62.486133510815 gnorm: 0.000480258223 xtb: 6.7.1 (edcfbbe)
N           -1.09441314881315       -0.21771276657582       -1.63588541204855
H           -0.39574001776650       -0.80521241913547       -2.07341014633525
H           -0.61481399272010        0.40032331034947       -0.98707397534855
H           -2.54814267555358        0.88937751273269       -2.11145754517291
C           -2.08713951741338       -1.01755795368160       -0.92166722486310
H           -2.35656699184307       -1.86185867752120       -1.56880465735740
C           -1.60987860103231       -1.54768909198008        0.42940468539223
C           -3.34551860105568       -0.15836074952824       -0.78136496041160
H           -1.33760786702189       -0.71908261032466        1.08034079781415
H           -2.40288978564573       -2.11130521534151        0.90871331021479
H           -0.74359186741528       -2.19309377594142        0.29763783892488
O           -3.38967704842662        0.89194530407019       -1.60722010793284
N           -4.21123012963248       -0.51352574165630        0.05817539204517
H           -5.19786664512962       -2.20508941846716        0.34844768266365
C           -5.50246648009097        0.10030122410533        0.29948850331771
H           -5.57247686079376        0.16307171048314        1.39705127523597
C           -5.78731712950203        1.48014410585166       -0.29740269415693
C           -6.51483610271389       -0.95124803271646       -0.12510550112868
H           -4.88792298010152        2.09069436508160       -0.21124749208027
H           -6.00972656213335        1.36062234988725       -1.35797508246631
C           -6.94380743233721        2.20875767401887        0.40031503563903
O           -6.13435479676197       -2.22430788465245        0.08075318657437
H           -7.74801243093571        1.49150162682004        0.58539279830702
C           -6.49762816538199        2.80071152645188        1.73640380488628
C           -7.47404880827114        3.32078273178134       -0.50290376832675
H           -5.71683960055796        3.54275058473758        1.58010668938926
H           -7.33460773409653        3.28628809779302        2.23280998879066
H           -6.11135095998363        2.03333098470529        2.40324160388482
H           -7.84797283946746        2.91756729617648       -1.44064539538300
H           -8.28605268739348        3.85372615278702       -0.01385664913074
H           -6.68295589193204        4.03372551360395       -0.72668853863792
N           -7.61678686253814       -0.61554805524825       -0.63040560433554
H           -8.59167413465324        0.62959984573499       -1.51192197679494
C           -8.59544672640026       -1.59075355062201       -1.05269412714602
H           -8.13003625961969       -2.45633096267116       -1.54151742381821
C           -9.44121730165507       -2.08488581695411        0.12575678688569
C           -9.52349724903761       -0.89093106603033       -2.05738119356825
H           -9.87844178118174       -1.23763653879558        0.65045825139802
H          -10.23793915325417       -2.72223451721569       -0.24733869616392
H           -8.81927043833553       -2.64835093260922        0.81682939967713
O           -9.33648126636730        0.42130397242015       -2.12506260924939
O          -10.34794573991117       -1.47583591526803       -2.70336115961044
