42
 energy: -62.486133514733 gnorm: 0.000479901308 xtb: 6.7.1 (edcfbbe)
N           -0.79146133585720       -0.07746827002038       -0.70223608975311
H           -0.04285604703509       -0.37292617330670       -1.31691929294790
H           -0.53012081835533       -0.33848490989316        0.24477462168792
H           -1.89960641941458        1.47077789640420       -0.37561459490071
C           -2.05226866046686       -0.72309987920059       -1.06522444843414
H           -2.16981332930603       -0.61800176370137       -2.15166746521480
C           -2.14825619915837       -2.20088420137465       -0.69323120747288
C           -3.17396317555754        0.09328840808449       -0.43638102913804
H           -2.00253196800083       -2.32915396565980        0.37790174559819
H           -3.13257877932394       -2.57370927962666       -0.95538311249291
H           -1.39229224883887       -2.77622835551781       -1.22352878987084
O           -2.85036883547273        1.36928930029585       -0.16653930383031
N           -4.28407501094229       -0.45515137407969       -0.22624268638864
H           -5.43608507955253       -1.87923560921516        1.38931915476192
C           -5.44435526141630        0.23546437809277        0.30841022833315
H           -5.25904402392915        0.49523616816185        1.36135225229941
C           -5.82170305726996        1.49836407018530       -0.47441201637208
C           -6.52984493227639       -0.82019970724873        0.24745571047400
H           -4.95316731889516        2.15623020729456       -0.50680699459232
H           -6.05560313458627        1.19071400456956       -1.49476487166410
C           -7.00633280137902        2.26802883749216        0.11987554556046
O           -6.33564813469312       -1.89728298652791        1.03800864548296
H           -7.80338653974695        1.55827573476850        0.35917253070815
C           -6.60653667193212        3.00772862879439        1.39499776977987
C           -7.53535952073190        3.26242637670953       -0.91234561376987
H           -5.79928911921565        3.70787781720936        1.18946688600906
H           -7.45276424602152        3.56644684610820        1.78825325365147
H           -6.27386642867817        2.31783735853061        2.16673474630914
H           -7.88421866425320        2.74679106619386       -1.80371284746845
H           -8.36536098733350        3.83222919206063       -0.50130725042884
H           -6.75176359006942        3.95972732626017       -1.20151219855814
N           -7.47752097766040       -0.72689063722717       -0.57243266874835
H           -8.25042769553152        0.13183896495643       -1.94391854697352
C           -8.47982067571193       -1.75421666632837       -0.72618770414835
H           -8.03038754106437       -2.75233154842102       -0.80276880622242
C           -9.48577056515839       -1.75362910326757        0.43019553892852
C           -9.23721475345498       -1.44321762752654       -2.02728045825291
H           -9.91664051781547       -0.76108073463153        0.54822359655360
H          -10.28056643523088       -2.46190969681853        0.21406133851049
H           -8.98798736006890       -2.03764448830231        1.35389669315276
O           -8.94628634508752       -0.25074964667104       -2.53186226471529
O          -10.02904605510591       -2.19710180513555       -2.52088492661329
