42
 energy: -62.486133518893 gnorm: 0.000479365859 xtb: 6.7.1 (edcfbbe)
N           -1.77991826079949       -2.11307232326507       -0.88065392265143
H           -1.81171940074939       -2.76202380263276       -0.10126732529507
H           -0.86719147698743       -2.19057241711019       -1.31360336509553
H           -3.63745040452182       -2.02821827699589       -1.47989053121201
C           -2.03030071073365       -0.74409304551146       -0.43609032291310
H           -1.54802430332029       -0.48611610943928        0.51750797497616
C           -1.56809336104057        0.24014727301756       -1.51180450134292
C           -3.53335065357583       -0.59171349385232       -0.27559666808104
H           -2.03794078017437        0.00017106077394       -2.46360504467304
H           -1.84563952895801        1.25024496196969       -1.22443991213249
H           -0.48780963046080        0.19043949197073       -1.63052621381010
O           -4.26433584568248       -1.41846071569749       -1.03963545650344
N           -3.97805876903356        0.29366956138977        0.50067985726339
H           -5.06480303255680       -1.54257035507518        1.73547138192041
C           -5.39836483014536        0.55879822212876        0.64221618521641
H           -5.52044298135209        0.92636957954526        1.67139183691739
C           -5.79666982598813        1.66533572407580       -0.34344285160477
C           -6.24743924634659       -0.68471221841748        0.49645888781910
H           -4.98497423215568        2.39573979794898       -0.36338555689004
H           -5.86983274140580        1.21270989008471       -1.33323566400733
C           -7.10943367475639        2.37439590058327        0.00731770268300
O           -5.89151104113956       -1.73437659969294        1.27429593990769
H           -7.84324663073903        1.61921588225046        0.30188035808124
C           -6.91869734633890        3.35437623096872        1.16319081556012
C           -7.63685546140876        3.11728071100200       -1.21902325091783
H           -6.20652119296555        4.12992712242749        0.88859623813340
H           -7.86351369340931        3.83127922765743        1.41339137296738
H           -6.54954623651308        2.85129148359260        2.05328407368590
H           -7.83843349717302        2.42852741901086       -2.03567199581853
H           -8.56000020911422        3.63905644165854       -0.97846771667050
H           -6.90845348751904        3.85096109021751       -1.55844883445033
N           -7.26087516852874       -0.69202082014683       -0.24605675885115
H           -8.08255833347302       -0.00356336557404       -1.68892306745697
C           -8.10049275792926       -1.85630258791998       -0.39733124926812
H           -7.51642226065534       -2.78475162354520       -0.42006692095324
C           -9.13892377619001       -1.94809268954048        0.72585859301991
C           -8.84219636580014       -1.70201455950439       -1.73424925504403
H           -9.69582652430181       -1.01555274098213        0.79414102631277
H           -9.82881462862203       -2.75927022397329        0.51109542647860
H           -8.64318737145884       -2.13566124022243        1.67511262455673
O           -8.69275535779108       -0.50323015019156       -2.28389085437784
O           -9.50556422926952       -2.57572982815624       -2.22001062905132
