42
 energy: -62.486133520146 gnorm: 0.000479063635 xtb: 6.7.1 (edcfbbe)
N           -1.73125902478003       -1.54084769142361        1.21128330870330
H           -0.75643873330441       -1.80569373283767        1.13918529904949
H           -2.26362575318395       -2.38380870923426        1.40844781020050
H           -2.87047054117999       -0.24734347509441        2.07017100568869
C           -2.20407599102183       -0.93441920533531       -0.03144739640768
H           -1.45803938092573       -0.18760375428652       -0.33323801820782
C           -2.42276699427706       -1.91879441909514       -1.17853476647435
C           -3.47960182433616       -0.17164429817253        0.29989264479657
H           -3.17220262382834       -2.65688413660011       -0.90067670617962
H           -2.77587318563086       -1.38404349041618       -2.05312732943431
H           -1.49369270102249       -2.43048314160058       -1.42174191624045
O           -3.62442608933390        0.15330499961295        1.59275422320617
N           -4.28367833938552        0.12166191285645       -0.62245957564559
H           -5.88706522514881       -0.25692698921990       -2.39639138631943
C           -5.51016149665174        0.84479545970505       -0.33797802228377
H           -5.58773271872779        1.12380515208040        0.71800151474642
C           -5.58394380805626        2.09118343456373       -1.22989408405234
C           -6.60991832993930       -0.14165913642435       -0.65275658612699
H           -4.84849270786343        2.81029085601248       -0.86360937481894
H           -5.28769295944529        1.81869384665699       -2.24698242022039
C           -6.97028619902712        2.74435892383821       -1.26165946741289
O           -6.65435084398070       -0.59834126397544       -1.91708048239133
H           -7.69435454049112        2.01621294767421       -1.64477758505070
C           -7.42049019847554        3.18132989931483        0.12996443735964
C           -6.94454043408684        3.94280702288594       -2.20913482026768
H           -6.67705758070043        3.83404286847251        0.58266173704300
H           -8.35981156193568        3.72549546315326        0.06447323256607
H           -7.57285386445169        2.32169443999637        0.77663806986308
H           -6.64252900316816        3.64143803336186       -3.21001049213259
H           -7.93012714815092        4.39738442828120       -2.27270249955540
H           -6.24373961532778        4.69342992080108       -1.85003298345941
N           -7.35414451951826       -0.55692777226835        0.27382790724263
H           -8.02129998500865       -0.37653527898513        1.94837308994079
C           -8.37715682240486       -1.55437817586731        0.04528951972798
H           -8.96320287659540       -1.33726561942747       -0.85626293312407
C           -7.78193603813458       -2.96131263859153       -0.07965816052789
C           -9.31511622784624       -1.52910021245578        1.26179011404450
H           -7.15367249596812       -3.17453677804854        0.78309325537421
H           -8.58814286664748       -3.68822292978337       -0.12206737383054
H           -7.18202346151808       -3.03109831673660       -0.98349857290771
O           -8.86589898822967       -0.77906048983432        2.26045893749320
O          -10.34229755626910       -2.14702376821621        1.30835188367075
