42
 energy: -62.486133505508 gnorm: 0.000480359276 xtb: 6.7.1 (edcfbbe)
N           -0.93113854148730       -1.06766358001640        0.39174862628331
H           -0.22214923783890       -0.37602447158996        0.60006127562766
H           -0.46729419832192       -1.92387038086814        0.11522330675880
H           -2.36640821151920       -1.07750124917381        1.53028556164543
C           -1.85924687123202       -0.60611746937134       -0.64519608344536
H           -1.52242680259023        0.32420260831929       -1.11448041531862
C           -2.07066462106981       -1.65708708278627       -1.73295068110818
C           -3.19460903788034       -0.32465999161513        0.03277371156305
H           -2.40627947219516       -2.59406011988936       -1.29296909765680
H           -2.82881151848345       -1.30532322739420       -2.42567187151234
H           -1.14492408229835       -1.83283041339192       -2.27715093761139
O           -3.27531079485630       -0.75803582646613        1.31487894352286
N           -4.11862845415287        0.22275426493109       -0.61340158759603
H           -4.98134688282729       -1.67439759310468        0.83263885194234
C           -5.39880018441475        0.53898494461935       -0.00930253753139
H           -5.27632088934952        0.73467582929352        1.06950696455090
C           -5.96263398658148        1.77321714998387       -0.71571117739127
C           -6.30351329488735       -0.67019090353446       -0.12763098639556
H           -5.14979123104794        2.49330509387647       -0.82423840826395
H           -6.27119002593630        1.46829880862772       -1.71503592562709
C           -7.13485563601955        2.43146263933967        0.02081805916172
O           -5.83937145922350       -1.81825459986216        0.40460631607818
H           -7.81117020868323        1.64573247519860        0.36885342767936
C           -6.65199692276982        3.23342563107319        1.22827937685691
C           -7.89924134796449        3.34641485338595       -0.93423079730750
H           -5.99467478073436        4.03984919692991        0.90896790077136
H           -7.49758949843124        3.67050928867480        1.75440185734422
H           -6.10805470704380        2.60592663312786        1.93002907532735
H           -8.30134605086532        2.78513320990453       -1.77387958820540
H           -8.72726217747048        3.82693882247151       -0.41852193746148
H           -7.24158467997360        4.12167361749407       -1.32172149302195
N           -7.43988718149155       -0.56486625889258       -0.65660043231147
H           -8.56182262212812        0.36237523508979       -1.71551374508993
C           -8.34940317601526       -1.68084870293193       -0.77010455956351
H           -7.83855641343578       -2.59666547215924       -1.09298892649777
C           -9.07353551499833       -1.95810919510336        0.55203047772833
C           -9.39824372265135       -1.29806427803122       -1.82655538600178
H           -9.55333582089896       -1.04942008709110        0.91069672125195
H           -9.83072571478568       -2.72055800508653        0.39246076774428
H           -8.36326157819246       -2.30361995035382        1.29897907867804
O           -9.32805055277001       -0.02744676521601       -2.20230730909427
O          -10.21073315610698       -2.07129052155902       -2.25214137256756
