42
 energy: -62.486133514978 gnorm: 0.000479675374 xtb: 6.7.1 (edcfbbe)
N           -0.87195624840544       -0.77020796523048        0.15769075913760
H           -0.49474641955772        0.16200953073897        0.29338453464644
H           -0.11787799751140       -1.36758260648965       -0.16019232198284
H           -2.28351698470054       -0.90825202976440        1.44668130684474
C           -1.96406487354414       -0.75121748761311       -0.81580971559002
H           -1.79972737083060       -0.06913458193184       -1.66006112564138
C           -2.20936169741720       -2.16281896514649       -1.35126989499392
C           -3.20799113069389       -0.30480785902440       -0.07415686381931
H           -2.37475489218296       -2.85445226028706       -0.52751375356517
H           -3.08495442217382       -2.16101154948396       -1.99353970402528
H           -1.35129022637034       -2.50305154724095       -1.92680853472491
O           -3.19584126882505       -0.60383728528785        1.25369662869993
N           -4.14912170449321        0.24835313620641       -0.68843203851461
H           -4.99899330093560       -1.32677476358705        1.29761547807371
C           -5.36474144303511        0.66326246985832       -0.01214118883603
H           -5.14007063330144        0.99253544189356        1.01552536120330
C           -5.98316991744748        1.80377115058818       -0.82084907444747
C           -6.27068353056437       -0.54635346973722        0.08794491754761
H           -5.20174656656952        2.54294174851805       -1.00567634769348
H           -6.28494942756808        1.39263254744859       -1.78344754643335
C           -7.17738438915929        2.47812321445984       -0.13707073570774
O           -5.86254709816399       -1.53586387177679        0.90576412745908
H           -7.83097734614042        1.69989245841192        0.26745143862731
C           -6.72557895156917        3.38400576188771        1.00717991340483
C           -7.96718031943820        3.29164710289249       -1.16063271303792
H           -6.08243131722942        4.17701189094768        0.63062413553343
H           -7.58620908872309        3.84250225164930        1.48876779378865
H           -6.17679496321631        2.82667088284469        1.76234592430860
H           -8.35469131991371        2.65170798646858       -1.94930839315583
H           -8.80696760732906        3.79086178763289       -0.68295478934223
H           -7.33120330766131        4.04963193702656       -1.61302614049171
N           -7.33124630830888       -0.59944747029549       -0.58617921995903
H           -8.36405321940922        0.08082742047462       -1.88737167133879
C           -8.22167764323620       -1.73500123644848       -0.55287331778922
H           -7.67817384137249       -2.68442999748817       -0.63770634354771
C           -9.06661915716369       -1.76184747365308        0.72588062314792
C           -9.16913504328722       -1.59178265650300       -1.75508376599639
H           -9.58582572930041       -0.81313592259074        0.84820759557067
H           -9.79915470546559       -2.56081598948048        0.65432016090463
H           -8.42808619192408       -1.93182053113734        1.58906876222890
O           -9.08296923433479       -0.41093395735499       -2.35379076543722
O           -9.92772442189854       -2.45583306202719       -2.09731838852729
