42
 energy: -62.486133516165 gnorm: 0.000478977811 xtb: 6.7.1 (edcfbbe)
N           -2.91101438778591       -1.52722986877994        2.05284204715354
H           -1.97671390241640       -1.85938718917386        2.25755571711863
H           -3.52408724127842       -2.33917692135024        2.02176066881393
H           -4.25351504446947       -0.29467564561971        2.59172516921411
C           -2.94791180501237       -0.82664383788649        0.77112366083318
H           -2.12966246714032       -0.09418821006911        0.77326221668881
C           -2.81436300490935       -1.72606623689568       -0.45702767596575
C           -4.25005077969193       -0.04136340248296        0.73537289565051
H           -3.56315344240114       -2.51476852240733       -0.42599616575121
H           -2.97204696511406       -1.13419251863559       -1.35209211551610
H           -1.82611680483607       -2.18021601248935       -0.48998295245232
O           -4.80848328233096        0.18013019462391        1.93725610357166
N           -4.71425214569227        0.37049730906396       -0.36094886119318
H           -8.37384963292804        1.39850844229967       -0.66011044181715
C           -5.98867028789067        1.04530123168072       -0.38059420053047
H           -6.05833484638929        1.76586499577946        0.45162951593526
C           -6.15329761286214        1.77239035307429       -1.72987128376682
C           -7.10763331921928        0.04858782276183       -0.14776678547036
H           -5.19773503758949        1.69326352232150       -2.24910335894092
H           -6.89241361174435        1.25141997148700       -2.34456453343351
C           -6.53558132496662        3.25289231169121       -1.60234848129315
O           -8.36822231929090        0.47876440811811       -0.36505061239687
H           -7.36520007391876        3.35878559090345       -0.88901409455330
C           -5.35581503942387        4.07245429614790       -1.08558198452612
C           -6.99857769222572        3.79204516515733       -2.95454965774568
H           -4.53812625371394        4.04227279599235       -1.80194284094612
H           -5.64727754329067        5.10991154122742       -0.93735050949766
H           -4.99128280467291        3.68003611506505       -0.13944093875488
H           -7.87273064344073        3.25187750228326       -3.31284696879633
H           -7.25677275588573        4.84548269359195       -2.87641819380828
H           -6.20605919616062        3.68706536990758       -3.69167449477434
N           -6.83334541936622       -1.10319060301035        0.27006363095181
H           -5.61006580058403       -2.13619713334022        0.89003586200458
C           -7.80498770165422       -2.12229242941123        0.57693284663099
H           -8.60919666566404       -1.73915053392099        1.21769397920065
C           -8.42020153157806       -2.73728572772305       -0.68381968794061
C           -7.03903396815725       -3.21818052247388        1.33992440575516
H           -7.63134487837166       -3.06992124119284       -1.35591556692094
H           -9.03376072814202       -3.58918655697609       -0.40438338364531
H           -9.03396264125634       -2.00006381368312       -1.19503909221587
O           -5.72558638914698       -3.00689507194447        1.36014916304971
O           -7.56575426021431       -4.16930526173095        1.84504175557131
