42
 energy: -62.486133519970 gnorm: 0.000478801873 xtb: 6.7.1 (edcfbbe)
N           -1.46071133928204       -0.48126825549629        1.18799161593494
H           -0.58265977494760       -0.95460306467193        1.00983623124196
H           -1.78649975369369       -0.78287510669527        2.10262851897876
H           -2.27291102684653        1.29725706072349        1.03732258885443
C           -2.45524202682777       -0.83766108299544        0.17429181415685
H           -1.98459046760889       -0.67373064222421       -0.80507650325799
C           -2.97066753028205       -2.27160957348535        0.25116839279414
C           -3.58161130458263        0.17457827163676        0.28922611075796
H           -3.45607162963688       -2.44893610201357        1.20742435534078
H           -3.69924990315126       -2.43725437757000       -0.53406471795033
H           -2.14890246996958       -2.97514382232090        0.13328616240412
O           -3.20208057241025        1.38628641681260        0.74840807134253
N           -4.75134555694254       -0.14265871771636       -0.03724317262299
H           -8.04177291470427        1.70978168847752        0.55545187983779
C           -5.82081911281861        0.82481013174415        0.01202860307748
H           -5.69411917525003        1.52562577863988        0.85263721894323
C           -5.79432758225311        1.60491811633324       -1.32235030474464
C           -7.11026042233784        0.06076941019564        0.19453644272208
H           -4.79217353151135        2.03069856139036       -1.41354895334611
H           -5.91684440974655        0.86944135131662       -2.12047066572742
C           -6.81768151754934        2.73012714581765       -1.50749268227743
O           -8.23270879587048        0.76746059033969        0.47429324569359
H           -7.83221204758153        2.32213370872209       -1.44083169224662
C           -6.64022677938069        3.84260472490871       -0.47398732014351
C           -6.65599092448984        3.31277154710642       -2.91228223115402
H           -5.63817874080281        4.26003477467133       -0.54691000689302
H           -7.35692557667212        4.64135559607199       -0.65308672338215
H           -6.77928946660646        3.49092536396007        0.54702932828952
H           -6.80349517792098        2.54372321458617       -3.66664054669139
H           -7.38358872034543        4.10306905426323       -3.08194860355102
H           -5.65966595988113        3.73088962037839       -3.03799977816936
N           -7.08437330539351       -1.19251356341180        0.15666320280020
H           -6.04352076483075       -2.62234191919740        0.28398332045397
C           -8.22774328228226       -2.03695964780360        0.37554664350871
H           -8.85559608278721       -1.68496710968490        1.20484594327334
C           -9.09245554494451       -2.15969027873876       -0.88325784261992
C           -7.66801954850847       -3.42793540077587        0.72707994743184
H           -8.47527285519222       -2.46116344345146       -1.72707596595186
H           -9.86220307593782       -2.90838013666369       -0.71842895374348
H           -9.55880028569344       -1.20352034124538       -1.10796894252742
O           -6.35548083002509       -3.52025892031756        0.56992956794637
O           -8.35990140150010       -4.33781693144099        1.09399152334882
