42
 energy: -62.486133508107 gnorm: 0.000480881018 xtb: 6.7.1 (edcfbbe)
N           -1.48298918423382       -0.56740071628248       -2.01966203710804
H           -0.74618283427281       -1.18806693317499       -2.33043425175952
H           -1.05783721445919        0.32924875075198       -1.80061435418117
H           -3.20997383599105        0.02558334624859       -2.55781401157956
C           -2.16094957441335       -1.09947053715955       -0.83946221053379
H           -2.33650789608335       -2.16837305910068       -1.01612010777903
C           -1.39050081897581       -0.92299769339329        0.46765587914698
C           -3.53392286464948       -0.43550042968390       -0.77072394869055
H           -1.18180608421950        0.13150683278967        0.63758474105456
H           -1.98789661678037       -1.28915059656660        1.29564784131720
H           -0.44970374875787       -1.46866128292083        0.43203241390914
O           -3.94052183588006        0.12849742870848       -1.91178957270144
N           -4.17801023505968       -0.49091079350323        0.31121673235003
H           -5.26402459552797       -2.27749232222828        0.56967989424116
C           -5.51352022547003        0.06567847724634        0.46399144669227
H           -5.65740880967430        0.12607351327966        1.55361036836177
C           -5.73929625305240        1.45184873659275       -0.14772049398534
C           -6.49581465005267       -0.97042799889496       -0.04298666712538
H           -4.81727758647164        2.02724877306477       -0.03726076116583
H           -5.93670221771450        1.33431816983237       -1.21281066276928
C           -6.89195382830571        2.21900684071787        0.51200395989424
O           -6.15349354023767       -2.25538293614997        0.18239691072589
H           -7.72225154574124        1.52494077035895        0.67072640888781
C           -6.47213681087966        2.80137235625295        1.86059811708982
C           -7.36111267766674        3.34298943580062       -0.41023750594246
H           -5.67027980096364        3.52508190791749        1.72691699143467
H           -7.31198301636300        3.30660615993854        2.33198227425112
H           -6.12226699618030        2.02600264236149        2.53783613690170
H           -7.71803020357692        2.94778861830213       -1.35794514398778
H           -8.17135851785507        3.90120415235634        0.05277165617637
H           -6.54309540814522        4.03205500426335       -0.61102235633842
N           -7.55716497876895       -0.61949519281827       -0.61794942067707
H           -8.44912432943636        0.65065190559890       -1.53845307858155
C           -8.51776121292822       -1.57411138700769       -1.11951664894990
H           -8.03214960591658       -2.43471421115267       -1.59711782503595
C           -9.44111802095263       -2.08207649365845       -0.00705483053390
C           -9.37254174838061       -0.84180340455489       -2.16602721577067
H           -9.89902845236876       -1.24039221897866        0.50883372257713
H          -10.22134695250218       -2.69954384892974       -0.44307463256232
H           -8.87085703657212       -2.66959086862833        0.70819570991994
O           -9.16011888608364        0.46762872398580       -2.19882850237373
O          -10.16617060817409       -1.40179541110884       -2.87011986896003
