42
 energy: -62.486133507823 gnorm: 0.000480837134 xtb: 6.7.1 (edcfbbe)
N           -1.92023954649687       -0.92865169832233       -2.27953460362986
H           -1.20365637581550       -1.57171118314604       -2.59267200641052
H           -1.52651134551979        0.00784601339603       -2.30764886525638
H           -3.76900219670594       -0.51437916515097       -2.59504207119024
C           -2.35488499149026       -1.24451107493261       -0.92068177114509
H           -2.52279938397875       -2.32845299269516       -0.87558855121855
C           -1.36889689197959       -0.84167741950255        0.17382395430953
C           -3.71462498681546       -0.58482548339351       -0.72006876018730
H           -1.17932733306633        0.22884303933974        0.12918094741078
H           -1.79103488778303       -1.07255321164256        1.14575900297149
H           -0.42768512349503       -1.37436058953970        0.05250037205090
O           -4.36272929066393       -0.28315300801693       -1.85072891262424
N           -4.13971740698393       -0.41086754165397        0.45304121721823
H           -5.59719810776933       -2.06079050525272        1.51551933938003
C           -5.44613861727779        0.17606315284168        0.72446723195218
H           -5.48244924802472        0.28293864714368        1.81837548796179
C           -5.66638964512747        1.54195960107561        0.07006321646621
C           -6.47397969535338       -0.85450207020408        0.31819230041178
H           -4.78187334291108        2.15331692605566        0.26467908149537
H           -5.74776059646717        1.39321948337652       -1.00573604632414
C           -6.91446763825629        2.27012836650504        0.58170229669849
O           -6.37836388514835       -2.04839828072194        0.94667938993464
H           -7.73672819039004        1.55063672954290        0.63334949195110
C           -6.68964484438610        2.86359221157482        1.97104147058048
C           -7.30035609007083        3.37692891467273       -0.39825250729453
H           -5.88222760610223        3.59283306511192        1.94528202987821
H           -7.59062529382803        3.36469364039377        2.31755842439496
H           -6.43362554834029        2.09449406805812        2.69546445389829
H           -7.53070336460734        2.96420800184497       -1.37732682125529
H           -8.17533077179981        3.91417333983489       -0.03988819204979
H           -6.48384109843078        4.08799084432512       -0.50689606632708
N           -7.30477366640571       -0.61432737482771       -0.59246688563296
H           -7.74912129579848        0.40605864274505       -1.99417946134435
C           -8.25064009717865       -1.59325489213766       -1.06990412076166
H           -7.79314246933413       -2.58430242622153       -1.18570720687732
C           -9.46148778454910       -1.71351242361697       -0.13875803624316
C           -8.73642026139878       -1.10521494771792       -2.44490497546007
H           -9.90287902427265       -0.73239046447721        0.02542062684937
H          -10.20151500204198       -2.36407791650567       -0.59625940559055
H           -9.15420480888871       -2.12973324924200        0.81748435427125
O           -8.32664016042401        0.12011756349423       -2.74378633607870
O           -9.43255332732291       -1.76642002435994       -3.16461787979031
