42
 energy: -62.486133509023 gnorm: 0.000479982756 xtb: 6.7.1 (edcfbbe)
N           -2.91179667876222       -1.14285615205098        1.98539081140780
H           -1.93736691858996       -1.36590202703250        2.14766106241006
H           -3.42233574707949       -2.02204995118664        1.93269105233189
H           -4.37696654094478       -0.08960617327542        2.61371119193619
C           -3.07632904438693       -0.40133486587840        0.73703086115987
H           -2.36798531713644        0.43814819356983        0.75850691515254
C           -2.84526936110247       -1.21858461581576       -0.53316415916073
C           -4.47289153474335        0.19825433164554        0.76407843222350
H           -3.45724777293227       -2.11732854764162       -0.51653983216181
H           -3.12438890585445       -0.62420009007083       -1.39623360581097
H           -1.79938794651995       -1.50759062099064       -0.61348335236339
O           -5.00768000615098        0.32798499468739        1.99039166950886
N           -5.03489051008401        0.55416765479093       -0.30561780343719
H           -8.80861087578452        1.19124706552262       -0.09600506320031
C           -6.38033401875680        1.07002447291858       -0.26208780091636
H           -6.50397691279034        1.79497082859853        0.56122547548637
C           -6.69486001085719        1.74406120969150       -1.60890105484403
C           -7.35211493730433       -0.05813860527522        0.02925929988947
H           -6.14763404152583        1.19575535058391       -2.37647264776145
H           -7.76164190561553        1.66185368368119       -1.83651582277504
C           -6.29749292550296        3.22343706489104       -1.65712220193053
O           -8.66767930488349        0.24648162683619        0.04612547637592
H           -6.75360010560891        3.73635095411377       -0.80045919793267
C           -4.78386089463603        3.39081104829588       -1.57404727610966
C           -6.82869749051011        3.86342998370070       -2.93865199565860
H           -4.30884170862794        2.92373731943720       -2.43304827774078
H           -4.51833893990243        4.44556541337918       -1.56052314500250
H           -4.39322689808047        2.91930443081335       -0.67724632142910
H           -7.91336395608577        3.79282834327934       -2.99173576395396
H           -6.55350481441747        4.91460689571047       -2.97911573980204
H           -6.40941170730248        3.36601040304847       -3.81016481676069
N           -6.90683300856835       -1.19850374116430        0.30687223785984
H           -5.50407933791183       -2.11699451067647        0.70604738048413
C           -7.71513871593943       -2.32724102845678        0.68980005528488
H           -8.47972694555440       -2.05298536538236        1.42756349345697
C           -8.39598494579360       -2.98503055760078       -0.51415955142451
C           -6.74691391100238       -3.33905992686507        1.32764198671101
H           -7.65596821562574       -3.21660581615305       -1.27765891004385
H           -8.87990770085249       -3.90383529830339       -0.19512805884148
H           -9.13815939599635       -2.31045078433306       -0.93329688649372
O           -5.47065304893700       -2.99232320137388        1.17951950486297
O           -7.10109828979188       -4.34043492057922        1.88279690728316
