42
 energy: -62.486133508561 gnorm: 0.000480404783 xtb: 6.7.1 (edcfbbe)
N           -1.57865955156082       -0.85761121349192        1.10408831102927
H           -0.65322900684103       -1.22688078458228        0.92269997450279
H           -1.98526154794544       -1.41051038927249        1.85447844014826
H           -2.51119670299681        0.79622217818072        1.42546024525532
C           -2.42170133063007       -0.95185643430067       -0.08762971801610
H           -1.83812366696603       -0.56171599027917       -0.93176172180607
C           -2.90748087390782       -2.36175190872328       -0.41666872296529
C           -3.59245344501682       -0.00236155990281        0.11753668553519
H           -3.45616512145616       -2.77345452638573        0.42819218281967
H           -3.57730570185151       -2.32113115920904       -1.26873530887308
H           -2.06586550334253       -3.01233410836804       -0.64596816810252
O           -3.38391708153472        0.97214816900418        1.01929559188802
N           -4.64861858489928       -0.16350064742839       -0.54491843643381
H           -7.08120539209824        0.49675577681113       -2.44066363954416
C           -5.77381956293820        0.73643892157347       -0.35969249291651
H           -5.82335772812735        1.06374042196918        0.68704937883567
C           -5.62923830500990        1.96351857464061       -1.26676628552185
C           -6.99179393802274       -0.12222960198856       -0.63328786424938
H           -4.70543337347766        2.46858117380464       -0.97552407478407
H           -5.48947451059145        1.63477497590406       -2.30300862833692
C           -6.79167440364710        2.96164023232196       -1.17591149688110
O           -7.55545219462346       -0.10629695877181       -1.85451881527079
H           -7.74240566992353        2.43603134848603       -1.32187181536310
C           -6.83303582254141        3.64304758901363        0.18990129057050
C           -6.64643628482932        4.01066831506092       -2.27825004010158
H           -5.88644300000283        4.13778095223997        0.39618923242173
H           -7.62325290770813        4.38993327953851        0.21188344463929
H           -7.02727219772302        2.92411825121856        0.98121591895708
H           -6.64870168071431        3.54883555586186       -3.26380940549141
H           -7.46676579646906        4.72284894883778       -2.23541158297972
H           -5.71300400029797        4.55641659754678       -2.15824159405845
N           -7.37251531275276       -0.89540784964508        0.28545960250168
H           -7.29862047649741       -1.41841116125476        1.99921837347083
C           -8.45298584996448       -1.83886097249325        0.10766205656413
H           -9.33905434549025       -1.36583639516866       -0.33375506205041
C           -8.03731989493855       -3.02666238273101       -0.76795660516630
C           -8.81694041511657       -2.37105090292056        1.50225478717175
H           -7.12072449864736       -3.46676897685045       -0.38048199686349
H           -8.82631271750922       -3.77336245723520       -0.75680037904224
H           -7.86554126156578       -2.69418940382857       -1.78803313495090
O           -7.95652362882929       -2.00524658783017        2.44499693831197
O           -9.77090796715452       -3.06809470874572        1.71101965501288
