42
 energy: -62.486133508802 gnorm: 0.000480819723 xtb: 6.7.1 (edcfbbe)
N           -0.89805408386904       -0.95172227970467        0.39535056449368
H           -0.57162840288026       -0.12091459525891        0.87776914619645
H           -0.09140817244473       -1.42055553365944        0.00051155693437
H           -2.43029572507536       -1.49540074743381        1.36807046740476
C           -1.86011302579350       -0.60204812857328       -0.64971756045695
H           -1.61832068577560        0.32279538527719       -1.18901283670923
C           -1.98052204271881       -1.75108738551417       -1.65190995937484
C           -3.20789432535472       -0.42554438196305        0.02665007650145
H           -2.22478851901981       -2.67727268050543       -1.13533540722663
H           -2.76503984797349       -1.52800854628983       -2.36874443767183
H           -1.04301938475461       -1.88604599012511       -2.18690368210404
O           -3.32642448449935       -1.13657466698874        1.18521372581989
N           -4.06589717360114        0.32297131832133       -0.48688793632288
H           -4.97266744533843       -1.70791831365067        0.88966035413590
C           -5.41244365081948        0.55510453071104       -0.00918898978511
H           -5.36543071973280        0.83374468109290        1.05881983199262
C           -5.99059630513035        1.72060025141172       -0.81768756959673
C           -6.29762954838759       -0.67848169803043       -0.05507697295219
H           -5.17440604622565        2.41765401565170       -1.01259742711972
H           -6.32929358121970        1.32917942552262       -1.77642433434226
C           -7.13719107058064        2.45886355300252       -0.11722758410196
O           -5.85485708946043       -1.81864235241979        0.49484095750133
H           -7.81751364285860        1.71712303173088        0.31093710564393
C           -6.61640739773033        3.35431389661760        1.00591419164945
C           -7.90807293053950        3.30313621740362       -1.13038851881967
H           -5.95228684122038        4.11691399308774        0.60401534531251
H           -7.44361131942293        3.85136713252297        1.50736792136241
H           -6.06819384708479        2.78249200714485        1.75080040597873
H           -8.33699044441209        2.68163434003883       -1.91220793822486
H           -8.71725299446087        3.83920550983014       -0.64005951565735
H           -7.24694049730143        4.03232926763298       -1.59405024448958
N           -7.44870207438081       -0.57300101622646       -0.55949338222494
H           -8.59574264035548        0.32321246096500       -1.61899744051731
C           -8.37267322559392       -1.68201432836492       -0.60503208545429
H           -7.87845504278184       -2.61971697345385       -0.88878488027790
C           -9.07987620928766       -1.88252176380337        0.74016563675794
C           -9.43413882004627       -1.33821697263510       -1.66132008352837
H           -9.54265726972366       -0.95038537525367        1.05875775717032
H           -9.84834265909129       -2.64264518357901        0.63220112508265
H           -8.36150572230263       -2.19808049352084        1.49263958258667
O           -9.36911468460131       -0.08118106569489       -2.08203474530103
O          -10.24979166626528       -2.12668641055011       -2.05166713165254
