42
 energy: -62.486132329997 gnorm: 0.000618801886 xtb: 6.7.1 (edcfbbe)
N           -0.90514787826028       -0.99380943186643        0.22072550494308
H           -0.49541730400716       -0.13191805492798        0.56565819212054
H           -0.16336018663510       -1.54990358036023       -0.18798815695225
H           -2.36934293530756       -1.32933074568315        1.38743626559735
C           -1.94862305010979       -0.71377463889630       -0.76576883240325
H           -1.71594219635305        0.12081041263317       -1.43960525479783
C           -2.22861955771387       -1.96729239572526       -1.59604919282116
C           -3.21000300268086       -0.37059711489344        0.00527510775389
H           -2.46862748117961       -2.80481401016944       -0.94389030700844
H           -3.06781981487963       -1.78434258720720       -2.26038401936657
H           -1.35717962830784       -2.22765251740210       -2.19286791307424
O           -3.25473117218668       -0.92855451239950        1.24654856174449
N           -4.07032076810705        0.37509592602173       -0.51215801372561
H           -5.02314140452895       -1.28856095053248        1.47334858213061
C           -5.35245179654912        0.70973541248096        0.07837904881635
H           -5.19392808166490        1.08410091292661        1.10452451996123
C           -5.97444575324464        1.80495000033092       -0.78959824586221
C           -6.24031883233517       -0.51438922052318        0.20178631355410
H           -5.20382656088964        2.55595208931796       -0.96986165210806
H           -6.23039058475911        1.35638494222042       -1.74879672317892
C           -7.20926846920601        2.47245511434541       -0.17507494400618
O           -5.90610891673138       -1.45400462545410        1.10111477307896
H           -7.86704069652696        1.69245283231825        0.21908451894035
C           -6.82624274833249        3.41360320677267        0.96577665945345
C           -7.96671817561595        3.24694105037112       -1.25208872996351
H           -6.16965662478874        4.20166235791262        0.60243868325065
H           -7.71518538088893        3.87721101143082        1.38744455842163
H           -6.31523638730518        2.88262734429934        1.76517457219112
H           -8.30261252198708        2.58223684348204       -2.04399994289033
H           -8.83873110940459        3.73730107607092       -0.82569505290511
H           -7.32608734910981        4.00920650814988       -1.69043379772337
N           -7.26287460080779       -0.60382248610740       -0.52932278150412
H           -8.23357780029655       -0.00267897964599       -1.91678141984768
C           -8.16015512918579       -1.73302557743400       -0.47242418736640
H           -7.61949348074840       -2.68771310331887       -0.44948089630103
C           -9.08748801460358       -1.66089577857119        0.74637340965219
C           -9.02774774315442       -1.67569385710837       -1.73948131946424
H           -9.61085016499425       -0.70662052107596        0.75920545159271
H           -9.81598417691350       -2.46481718154775        0.69166953004018
H           -8.50602225931455       -1.76002145602061        1.65951640131435
O           -8.91629793312561       -0.52947113533997       -2.39907078575408
O           -9.74917358801229       -2.57104842323161       -2.08172335473585
