42
 energy: -62.486133518739 gnorm: 0.000479730496 xtb: 6.7.1 (edcfbbe)
N           -2.21319028969060       -1.40164078054235        1.59316305533200
H           -1.27721657520852       -1.78820717404011        1.57451878245719
H           -2.82925385466737       -2.11193315355374        1.98146506005558
H           -3.20936486312072        0.13210486173667        2.15312120222626
C           -2.65994966303740       -1.04544707627536        0.24701246991100
H           -1.85205576185571       -0.47228089151793       -0.22609816657918
C           -3.02320451956899       -2.23627000932609       -0.63824676140974
C           -3.84447893655200       -0.10339868118034        0.40574273465874
H           -3.80199219404535       -2.82767180666886       -0.16153844138922
H           -3.40159262987200       -1.87562543875031       -1.58833657202012
H           -2.15209762194666       -2.86580157501768       -0.80826868685385
O           -3.92963590712919        0.50128886809819        1.60285676017414
N           -4.64967907333170        0.04875009793974       -0.54781609513135
H           -7.51689963785603        0.82044025071571       -2.21737604352517
C           -5.80203093999347        0.92000679910325       -0.40574906151646
H           -5.85354628606692        1.34428947534185        0.60588979791098
C           -5.70977934135051        2.04733389943894       -1.43738084158996
C           -6.99448261240929       -0.00740298685574       -0.57219188364963
H           -4.71916239593632        2.49644485409868       -1.33794417897300
H           -5.74873683245441        1.62002811230048       -2.44473309566061
C           -6.77348341599574        3.14194572790129       -1.25651497183811
O           -7.80874681230761        0.10748588747010       -1.63453153524448
H           -7.73995650226363        2.68237592281103       -1.01691443336905
C           -6.40107018110477        4.07409332438023       -0.10534218418432
C           -6.92413215391495        3.94570500532377       -2.54797584428086
H           -5.46805103908294        4.58963993239147       -0.32317733871193
H           -7.17810603954184        4.82016412869434        0.04420444600278
H           -6.27879609788349        3.52095782574832        0.82222781476867
H           -7.25416228202664        3.31570059115940       -3.37223874769033
H           -7.65426248193073        4.74074177464335       -2.41670359033510
H           -5.97338030281059        4.39730805688866       -2.82292015656545
N           -7.12674672878618       -0.89426149219497        0.31170637313192
H           -6.47900147647275       -1.58959077337995        1.79240155767037
C           -8.13074459299486       -1.92867325675218        0.30015776403837
H           -9.14185972610655       -1.50241774498244        0.32306048627637
C           -8.01734101165788       -2.87287400676915       -0.90150879176983
C           -7.91774402087500       -2.74738133977246        1.58718004707093
H           -6.99534342357773       -3.23737585119171       -0.98794338929379
H           -8.68591516602624       -3.71645722317309       -0.75338952568024
H           -8.28531021255826       -2.35248793837677       -1.81669299992215
O           -6.85102245671710       -2.36818134289517        2.28059598898606
O           -8.63266520332596       -3.65345066313075        1.91516418041989
