42
 energy: -62.486133515802 gnorm: 0.000479771094 xtb: 6.7.1 (edcfbbe)
N           -1.44745048556676       -0.46443594602806       -1.98543753280900
H           -0.71995999012972       -1.07356010245403       -2.33881491889068
H           -1.00100425890293        0.38216639190437       -1.64326420059508
H           -3.14733966518415        0.22510527332758       -2.52322300782456
C           -2.19433625897264       -1.10473202441103       -0.90481921536099
H           -2.42709582095643       -2.12706250073507       -1.23093627991769
C           -1.45744786202084       -1.15669944707861        0.43188507290312
C           -3.52890769554969       -0.37228116679655       -0.78823206450078
H           -1.20890705174791       -0.14957502221017        0.76075223346566
H           -2.09269762769048       -1.61243830453235        1.18363111489580
H           -0.54066191170283       -1.73535383765846        0.33722311220210
O           -3.88802650532863        0.30100148941627       -1.88586934121714
N           -4.18062262361784       -0.47591140591669        0.28383404868547
H           -5.33112480882764       -2.20744408851922        0.85502192341107
C           -5.49385526659913        0.11203751790081        0.50052437604200
H           -5.57751991740276        0.19366445210363        1.59485118743067
C           -5.74665162714065        1.48410740507209       -0.12834334671691
C           -6.49343930151969       -0.93690603312337        0.05929471627944
H           -4.84170088057828        2.08465849243112       -0.01185629582916
H           -5.92552053463045        1.34977190657357       -1.19442061796816
C           -6.92970409022108        2.22763947867933        0.50405691022064
O           -6.21165639294481       -2.19725069070672        0.44890743895138
H           -7.74770348051493        1.51613682859974        0.64929543852849
C           -6.55296267372060        2.82873115167891        1.85705229504483
C           -7.40519868607590        3.33427791528027       -0.43581340457878
H           -5.75737409282447        3.56164945764163        1.73680857918060
H           -7.41141265060678        3.32763193836989        2.30094192313085
H           -6.21180949464362        2.06505744525849        2.55180314303001
H           -7.73560508926715        2.92372706497776       -1.38664614442444
H           -8.23577006833125        3.87875968531514        0.00725418431229
H           -6.59832099241801        4.03886757238068       -0.62726104975666
N           -7.48889214014555       -0.62533673499606       -0.64156003247203
H           -8.29630465652661        0.57470654758886       -1.71166202558061
C           -8.44686505795377       -1.60031091565325       -1.10704040900809
H           -7.95735397182152       -2.50794652507151       -1.48300072537999
C           -9.43765182345646       -1.99420955756205       -0.00648686957388
C           -9.22818430574466       -0.94354544254503       -2.25644065600682
H           -9.90232199729152       -1.10340014087606        0.41172862638509
H          -10.20844653075448       -2.63192516101268       -0.42989407987314
H           -8.91840942877525       -2.52916682205695        0.78477560652526
O           -8.97952972500862        0.35285581649295       -2.38973240298434
O          -10.00044382002767       -1.54508776349543       -2.94995221869401
