42
 energy: -62.486133525607 gnorm: 0.000478524635 xtb: 6.7.1 (edcfbbe)
N           -0.99026285139756       -0.17174585454272       -1.36866275701767
H           -0.30717992724317       -0.70288425703741       -1.89506483407054
H           -0.55237090864523        0.11330608155198       -0.49700077382583
H           -2.27316421311994        1.23848914193614       -1.66756364010924
C           -2.17793126021795       -0.97608276075517       -1.08911068327864
H           -2.48167409438971       -1.44261528086877       -2.03566785166763
C           -1.98010271433897       -2.06489541847215       -0.03711532028071
C           -3.29770592322056       -0.00793075771455       -0.71317851102918
H           -1.72050870384518       -1.61981956287998        0.92121071132337
H           -2.89879865416634       -2.62934933779123        0.08053931254428
H           -1.18417054077970       -2.74208304120589       -0.34099412885895
O           -3.14374211197598        1.22444045826032       -1.22041364506841
N           -4.23753083522638       -0.43595908462692       -0.00111185047391
H           -5.39442030970250       -1.90712782628060        1.30451808159285
C           -5.43504830803289        0.26569350662042        0.41594124058091
H           -5.32408941744956        0.44473118908629        1.49593031413126
C           -5.78810567087653        1.57564024407947       -0.29074556360818
C           -6.49588413374908       -0.80501526321373        0.23242727242523
H           -4.93563792604493        2.25156206083390       -0.22707398692147
H           -5.96061219695531        1.35116889889058       -1.34401233103221
C           -7.02067457799846        2.27320315887377        0.29826895931512
O           -6.29124989857945       -1.93275550943113        0.94129345014653
H           -7.80756687600541        1.52927817099372        0.45123184046509
C           -6.70124233125956        2.93207930043610        1.63908571892151
C           -7.53143998408974        3.32498982952745       -0.68488401395384
H           -5.91680266843461        3.67668491709869        1.51814986305425
H           -7.58437812372015        3.42844217859037        2.03496852882617
H           -6.37153301976525        2.20148694102064        2.37394731601338
H           -7.81944237511280        2.86685634184386       -1.62782921657325
H           -8.39867726786845        3.83877209955310       -0.27657044735392
H           -6.75772159691350        4.06377272019542       -0.88318865345814
N           -7.41452998090942       -0.66605887827339       -0.61394664833407
H           -8.15986358440652        0.27863460573660       -1.95181051882983
C           -8.38525836179615       -1.70052239895991       -0.88292494311436
H           -7.90973546734211       -2.68147543198519       -1.01000948215772
C           -9.43578340889690       -1.80189540878148        0.22831181870504
C           -9.09536953996037       -1.31393531943711       -2.18991917244117
H           -9.89386551737124       -0.82914104563902        0.39730484637212
H          -10.20464412779152       -2.50977436496751       -0.06800313572432
H           -8.96726833513477       -2.13939546427452        1.14938956368634
O           -8.81750991867694       -0.08090441081712       -2.59481063495615
O           -9.84269360022893       -2.04989099512569       -2.77197101869274
