42
 energy: -62.486133503349 gnorm: 0.000480951510 xtb: 6.7.1 (edcfbbe)
N           -1.20251050883212       -0.72331407997297        0.82866490662015
H           -0.25878077201618       -0.97566855108778        0.56265832235750
H           -1.48651069181904       -1.34798941579505        1.57838590410630
H           -2.25325952234376        0.81092759469617        1.29628877013911
C           -2.12122027136919       -0.85691836911935       -0.30119185355852
H           -1.63666220744776       -0.39906899742824       -1.17326012434809
C           -2.51156871550928       -2.29477699034559       -0.63686822194517
C           -3.34696117761483       -0.01140761331067        0.01550572917344
H           -2.96835783309202       -2.76899557515248        0.22946509414959
H           -3.23533742385473       -2.29448047647513       -1.44454106351688
H           -1.63621633644143       -2.86815387508422       -0.93562356426723
O           -3.16266745734102        0.93016820328250        0.95375068588114
N           -4.42409507470937       -0.21763016199219       -0.60085592266903
H           -6.09283965686367       -0.28185259477562       -2.47323061939294
C           -5.59249114240627        0.59630778536787       -0.32042739634523
H           -5.66036211615515        0.82127410091085        0.75028306674011
C           -5.55112240933041        1.91055780014517       -1.11498125183118
C           -6.77235407496449       -0.26287495335308       -0.70551008857861
H           -4.74866989283545        2.52287066152063       -0.69867503329517
H           -5.28871588121210        1.69499427826764       -2.15599092211527
C           -6.86851476924064        2.69307745464932       -1.07674045509588
O           -6.87734133987816       -0.59527598933548       -2.00466754840616
H           -7.66103545628134        2.07255969314749       -1.51077679294088
C           -7.26907631150547        3.05416194785267        0.35139927082868
C           -6.72840193945015        3.95826818884076       -1.92198831904052
H           -6.45590357481644        3.57323069158250        0.85426993113013
H           -8.13883882429007        3.70678594565119        0.34117080419980
H           -7.52256083209335        2.16415617294964        0.92084941484498
H           -6.45544344283743        3.71397744081418       -2.94651648596797
H           -7.66614244269677        4.50796106001782       -1.94103098704791
H           -5.95953435068221        4.60631157471378       -1.50648618762667
N           -7.53311505323277       -0.70811378344429        0.19385702728728
H           -8.22200386136218       -0.57288617224123        1.86317966885731
C           -8.64009918596022       -1.58820138960598       -0.11236385937411
H           -9.16752651713325       -1.28537013822414       -1.02521521842927
C           -8.17050963560848       -3.03885903065147       -0.26874466596917
C           -9.61564286387874       -1.52066920922256        1.07153040947797
H           -7.61133102756341       -3.34388823910840        0.61347912049538
H           -9.03521153630470       -3.68603536215019       -0.38527714378177
H           -7.52943666598639       -3.12724327686881       -1.14210652210443
O           -9.11676981894472       -0.89126710565929        2.12931660797557
O          -10.71104863948553       -2.00867507892525        1.04795051937131
