42
 energy: -62.486133507450 gnorm: 0.000480361897 xtb: 6.7.1 (edcfbbe)
N           -0.93845508465204       -1.25414006124154        0.21492634437699
H           -0.54120789946939       -0.59410704702143        0.87522663360412
H           -0.17713859018145       -1.66304212654959       -0.31356796855766
H           -2.48382306560092       -1.90651729937143        1.08242401365004
C           -1.89150898406226       -0.59035545522233       -0.67423697808636
H           -1.59374209737541        0.42383281669739       -0.97002489304045
C           -2.10917744899123       -1.43426550738898       -1.93063661784017
C           -3.21715106288185       -0.50337194872976        0.06706531560040
H           -2.41139708104419       -2.44350306208763       -1.65846448532092
H           -2.88787580243807       -0.98411289103440       -2.53890971562897
H           -1.19263234196023       -1.48841237229225       -2.51419089153880
O           -3.34966064623472       -1.44356584094537        1.04020077330869
N           -4.02452637071215        0.39484185177254       -0.24956071638484
H           -5.09228352812631       -1.50279708756787        1.48323483641889
C           -5.37155305393878        0.63317102381342        0.22168025885410
H           -5.30531006329334        0.99708048835073        1.26136839873019
C           -5.94441444305378        1.74308888967613       -0.66701873634889
C           -6.27267602805917       -0.58919788113846        0.26935000538311
H           -5.15377378764216        2.48150617665951       -0.80610849255005
H           -6.16513675263040        1.30639080718268       -1.64051178973839
C           -7.19410411829854        2.42959620705749       -0.10594190893711
O           -6.00403036976050       -1.56443005513618        1.15077914204928
H           -7.88272879295064        1.66083859954794        0.25605650401808
C           -6.84581728658624        3.36154247450247        1.05330739964112
C           -7.88774698701259        3.22077372183412       -1.21350902260909
H           -6.15738081819718        4.13643489207227        0.72232359518731
H           -7.74391101966894        3.84230684695178        1.43425773477390
H           -6.38299774738457        2.81993702692858        1.87466870036031
H           -8.19720815641821        2.56572715982760       -2.02413359806486
H           -8.77068762299440        3.72388867629890       -0.82614981006561
H           -7.21462318000717        3.97417430179623       -1.61729769191233
N           -7.28577754616395       -0.61815824956046       -0.48153297449549
H           -8.20217673038447        0.04016557267616       -1.88417929957634
C           -8.21276582258125       -1.72434040589689       -0.48157828743501
H           -7.70069983492055       -2.69418460141672       -0.44270944405452
C           -9.19414682124795       -1.63673839733625        0.69321337587574
C           -9.01820444467057       -1.62906195294616       -1.78601735621404
H           -9.69276113546536       -0.66922876836759        0.68987532234412
H           -9.93963872610861       -2.42116366363990        0.59870712280641
H           -8.65794698841437       -1.75729918097543        1.63118381153478
O           -8.86751904316667       -0.46678594855571       -2.40965499097859
O           -9.72987393986314       -2.50854363224489       -2.18497844471242
