42
 energy: -62.486133523676 gnorm: 0.000478487886 xtb: 6.7.1 (edcfbbe)
N           -1.96035139395094       -2.34968484704450       -0.88449059321561
H           -1.03969628580488       -2.74758668497621       -0.74588522425359
H           -2.09074136846176       -2.21896480890363       -1.88396307799146
H           -3.78847270058560       -2.62588685516717       -0.40131279114529
C           -2.08941682579082       -1.06739858791152       -0.19543233737656
H           -1.67410247905487       -1.19416024135442        0.81270685076012
C           -1.38811255730403        0.10085966928225       -0.88498889251923
C           -3.58059984311442       -0.79370377119515       -0.02801371656978
H           -1.76513126189089        0.21524456730109       -1.89936400722413
H           -1.59234946356771        1.01569930363025       -0.33945010823581
H           -0.31366419582707       -0.06756682387727       -0.92237231851941
O           -4.36812283987665       -1.87534283500784       -0.15581611996830
N           -3.95948604906223        0.37675457530802        0.22746708162799
H           -5.20438607907817       -0.73037099070552        2.27397635498401
C           -5.34330478380001        0.77095775317830        0.39257557440021
H           -5.34360956466159        1.46434189469273        1.24672434654206
C           -5.76583929860641        1.53240605316699       -0.87154939235232
C           -6.28067580638459       -0.36894995560065        0.72601459382700
H           -4.93669229812877        2.18509129027020       -1.15153226939977
H           -5.90241482639299        0.79849486363469       -1.66682482562622
C           -7.04143154209869        2.36605920718918       -0.70839131011735
O           -6.04332671624242       -1.01482198871517        1.89093410338947
H           -7.78669333077419        1.76148821469038       -0.18409515707694
C           -6.77875491790807        3.63509677609946        0.09970941854316
C           -7.59357769342066        2.73340478563067       -2.08471966287740
H           -6.04364617824657        4.25968102633133       -0.40376219748236
H           -7.69639328903407        4.20838034341769        0.20961445628918
H           -6.40710285977224        3.40303263337415        1.09456041071441
H           -7.84672242433890        1.84169235870977       -2.65286491570198
H           -8.49107353143102        3.33904106795111       -1.98437335892964
H           -6.85752977024492        3.30403604799378       -2.64738927728583
N           -7.25636363695918       -0.63652503543334       -0.02012894314248
H           -8.02369707219843       -0.50069017213468       -1.62976010895391
C           -8.17412920648978       -1.71449575623633        0.26177455434651
H           -7.65165159959816       -2.61289953521495        0.61300949710821
C           -9.22281023580381       -1.30950007564947        1.30340642768566
C           -8.89677732852100       -2.03804590500384       -1.05500626289224
H           -9.72308696578667       -0.39440633568440        0.99180063649651
H           -9.95948270947653       -2.10238429735370        1.39728379802637
H           -8.74473981988529       -1.14323259395504        2.26549993523938
O           -8.66504422971700       -1.14817888159759       -2.01269487711639
O           -9.61498628331612       -2.98899123046207       -1.19394122348261
