42
 energy: -62.486133509725 gnorm: 0.000480026671 xtb: 6.7.1 (edcfbbe)
N           -0.89910331116522       -0.89890694311134        0.12558092056875
H           -0.48173655304557        0.00187496057765        0.33793643333474
H           -0.17060153614216       -1.50020517367222       -0.24054713881495
H           -2.30272158805507       -1.05106145346212        1.40217699255204
C           -1.98619547467867       -0.75064827728671       -0.84280092550862
H           -1.78978892920566       -0.00487749924173       -1.62459374400515
C           -2.28771693966108       -2.09801204235072       -1.50124750538385
C           -3.21445932487540       -0.31712243782259       -0.06663456738996
H           -2.49076509588376       -2.85148035366754       -0.74224020416093
H           -3.15664865865828       -2.00068048542389       -2.14578044103417
H           -1.43974572182877       -2.42385113514381       -2.09964902009620
O           -3.20138979679494       -0.69016021571572        1.24179322471989
N           -4.13638559319577        0.30539456769997       -0.64228159048972
H           -5.02151898276722       -1.25431843684119        1.43110878088054
C           -5.34877606683527        0.70685872503079        0.04902477625948
H           -5.11215008916427        1.03708873549260        1.07367016138370
C           -5.97740427969790        1.84604291748242       -0.75366137448522
C           -6.25060576122282       -0.50506663068208        0.15850258813189
H           -5.20911236479965        2.60571743096101       -0.90793845839936
H           -6.24559467667126        1.44313435055965       -1.72961863518162
C           -7.20434529620352        2.48231651079098       -0.09280161507444
O           -5.88718609665916       -1.45631920128200        1.03934336057490
H           -7.86400353713259        1.68336472071335        0.25791199499933
C           -6.80994143063001        3.35244387131175        1.09928344090276
C           -7.96298145194956        3.32157506810025       -1.11931651811115
H           -6.14681945452674        4.15417419208639        0.78028458446538
H           -7.69346070288399        3.79932994623853        1.54933521481823
H           -6.30256143064726        2.77080166537320        1.86485107005130
H           -8.30039187554573        2.70543426705188       -1.94920803025564
H           -8.83394613555088        3.78597618856847       -0.66253921558457
H           -7.32224211590700        4.10832116928038       -1.51244147964346
N           -7.26741795700671       -0.60030065015497       -0.57694801176495
H           -8.21737520109628       -0.00895025830001       -1.98364928948325
C           -8.14583611024631       -1.74513083603643       -0.54273552183584
H           -7.58921463815761       -2.69064358259676       -0.52129274169981
C           -9.09039295966194       -1.70013245724284        0.66397611788167
C           -8.99690219024968       -1.69105983157198       -1.82136618342729
H           -9.63224280666485       -0.75622149152730        0.67714210258205
H           -9.80258556517808       -2.51735321097516        0.59266874067242
H           -8.52006021460903       -1.79569187697190        1.58459169640543
O           -8.88788588130686       -0.54189724018867       -2.47581464641169
O           -9.70597746450496       -2.59178339144639       -2.17514023458426
