42
 energy: -62.486133513841 gnorm: 0.000479344453 xtb: 6.7.1 (edcfbbe)
N           -2.88195963744168       -1.82883584403375        1.87428680325042
H           -1.96218415635114       -2.22346003792281        2.02701839036655
H           -3.54945024197376       -2.59723242697130        1.86555620011121
H           -4.13355952455488       -0.56653759173682        2.49971159266845
C           -2.93930871083378       -1.10589701439136        0.60581943649622
H           -2.05999701595370       -0.45166167997916        0.55493128208502
C           -2.97983332381903       -1.99946849694842       -0.63333709391385
C           -4.17185813030926       -0.21596092485618        0.65725894668461
H           -3.82807239041773       -2.67785556471788       -0.57159668561697
H           -3.09601930437632       -1.38217537942354       -1.51742072362240
H           -2.06475202747210       -2.58286055894222       -0.71410833847418
O           -4.69233122789457       -0.04251412090926        1.88633503977575
N           -4.62135780452363        0.30279061640224       -0.39706653457381
H           -8.11158796214019        1.32053627388678       -1.30843691995135
C           -5.85257459139830        1.05779187632771       -0.35821475300032
H           -5.92500259673129        1.63479629955637        0.57842375686986
C           -5.88405742570507        2.00772781155892       -1.56564714476651
C           -7.01586835977736        0.07727963935377       -0.33765099948058
H           -4.84641724556297        2.20478992865408       -1.83884206969628
H           -6.33509861136255        1.49686578176631       -2.42112904812541
C           -6.59107007397769        3.34598307701129       -1.29808844951943
O           -8.18055604040276        0.44494953102007       -0.90629999031354
H           -7.50380800225580        3.17825142958715       -0.71003480188046
C           -5.68723299362293        4.27897745140018       -0.49455467641577
C           -6.98385615795180        4.00778042072130       -2.61822075997675
H           -4.79568749321721        4.52313679717632       -1.06765399605442
H           -6.20805665157829        5.20385630291546       -0.25740848513641
H           -5.37616717175078        3.81397889997057        0.43768452603059
H           -7.67002661570517        3.38179821057612       -3.18610023530088
H           -7.46850347405512        4.96402788909764       -2.43550276131002
H           -6.09977762628717        4.18329071759907       -3.22686454051185
N           -6.84982357210920       -1.02826147310281        0.23656611223218
H           -5.85860116102942       -1.91343887079063        1.36666979469827
C           -7.83955656975179       -2.07124284709171        0.33084503207067
H           -8.75604947896154       -1.70866603168738        0.81581675761525
C           -8.20317649767643       -2.67912609179961       -1.02598094474532
C           -7.22505653690303       -3.16116146507245        1.22907860582608
H           -7.29635664449067       -2.96269252130381       -1.55692173653295
H           -8.81319161116199       -3.56372836626613       -0.86588545314248
H           -8.75448305942715       -1.95951823271451       -1.62506518755315
O           -6.03093622718884       -2.83053959562262        1.70998844107196
O           -7.76292734417849       -4.20779982899581        1.46097712161938
