42
 energy: -62.486133511190 gnorm: 0.000479800012 xtb: 6.7.1 (edcfbbe)
N           -1.22277439823528       -0.59022644764238        0.59142279367080
H           -0.36330612698338       -1.04353609676892        0.30584602710482
H           -1.40774258676525       -0.86566551446540        1.55231834949585
H           -2.07564169520922        1.13151126949643        0.58382476784136
C           -2.33820465814977       -1.00067522702313       -0.26111615127866
H           -1.99694619771714       -0.92406186935661       -1.30186226747261
C           -2.85508608870162       -2.41361526290724       -0.00234556493949
C           -3.44264334126566        0.03336189807471       -0.08556323073958
H           -3.15982016526615       -2.51450812667862        1.03717581682946
H           -3.72080941843507       -2.59978156818044       -0.62829384770584
H           -2.08301102521153       -3.14888525392650       -0.22019967196746
O           -3.02834048392573        1.22617038796979        0.37881402121392
N           -4.62440542111961       -0.27776536980309       -0.37335599431917
H           -6.70322182457608        0.30193166020089       -2.48503303034495
C           -5.73224511781753        0.65186203425795       -0.25979346078064
H           -5.84693965574825        0.93123780836003        0.79460075237508
C           -5.55827999953122        1.92372920739619       -1.10133489875083
C           -6.94297684218334       -0.17317853375350       -0.64848193314783
H           -4.70748466284823        2.47323724603455       -0.69600313417838
H           -5.29372439022464        1.64928415348918       -2.12956065679532
C           -6.78808409861452        2.84139145635998       -1.10499024975855
O           -7.29573461637357       -0.23679081502533       -1.94617669506899
H           -7.66188429848955        2.28560450577528       -1.46405225471734
C           -7.10066815470890        3.36171612501615        0.29614404144035
C           -6.54069168371220        4.01207495024348       -2.05598247675574
H           -6.22565447237454        3.84437674921660        0.72619350106911
H           -7.90768330691593        4.08948566747653        0.25270739174080
H           -7.41248857043594        2.55396673408498        0.95315167902093
H           -6.33575767287174        3.66025174095369       -3.06527328436674
H           -7.41162153659266        4.66181858743769       -2.09316411275192
H           -5.68929839232586        4.59899448622067       -1.71816579032276
N           -7.50698846170065       -0.85551200964209        0.24686910070924
H           -7.80076376746818       -1.20543025904261        1.99078608177053
C           -8.59764062292814       -1.75786996578779       -0.04661031845307
H           -9.33530445406449       -1.30701209752912       -0.72204055400112
C           -8.09121870724548       -3.06564173012847       -0.66582441460915
C           -9.28008677410003       -2.08955834161382        1.28857510966651
H           -7.32431506210045       -3.50188847344718       -0.02907201115631
H           -8.91858803810520       -3.76325429528676       -0.76055724418642
H           -7.66636210706323       -2.86948717929330       -1.64669734334184
O           -8.58979961779402       -1.68034131007387        2.34640719835587
O          -10.32195273538413       -2.67934675270609        1.36564903635529
