42
 energy: -62.486133521496 gnorm: 0.000478458203 xtb: 6.7.1 (edcfbbe)
N           -0.83509963537176       -0.40700084616494       -0.27861517753973
H           -0.07164852851769       -0.96713289551387       -0.63789313855024
H           -0.67510757552580       -0.27463552449049        0.71657654606014
H           -1.78850727303036        1.19042169977481       -0.66536284493692
C           -2.11915633522878       -1.07451562255971       -0.48747100869339
H           -2.13058772548166       -1.44037428119280       -1.52265309219128
C           -2.39366335966862       -2.23923358375724        0.46037120809545
C           -3.20643820035704       -0.00539962444456       -0.38708787971903
H           -2.34821296567919       -1.89863133499085        1.49279180800382
H           -3.38857729611199       -2.62910470418504        0.27499033945702
H           -1.66071437733916       -3.03031703520738        0.31464838520403
O           -2.76236213693135        1.25062269445779       -0.57221057372111
N           -4.38322110529430       -0.37493095970545       -0.15965056472081
H           -5.67360720782996       -0.52080765303160       -2.23663291238405
C           -5.56020294289729        0.45672473858401       -0.05951437644500
H           -5.76099128343157        0.59464863769545        1.00778638645529
C           -5.51653438042729        1.82441658468024       -0.76359152456557
C           -6.68499584082099       -0.38131864851932       -0.63130292017385
H           -4.77479102318922        2.44987535349135       -0.26653300744917
H           -5.18192956309971        1.68264704071119       -1.79615026749580
C           -6.86645270058585        2.55172480835367       -0.77498182258162
O           -6.54105498942617       -0.78809630322731       -1.90709735340702
H           -7.60800991584905        1.91944941357724       -1.27632909838678
C           -7.36244997140243        2.84656690611083        0.63803709105649
C           -6.72881915346997        3.85278730623547       -1.56457722202762
H           -6.60981010138005        3.39913583357035        1.19682010413273
H           -8.26826596593337        3.44669752657657        0.59745878861413
H           -7.59261639193674        1.92749044319672        1.16942851764379
H           -6.39701688974033        3.65737144678914       -2.58208603736055
H           -7.68303789447218        4.37179836252466       -1.61084855265661
H           -6.00375956892436        4.50882304338759       -1.08739560272333
N           -7.67305019234581       -0.68300547017702        0.08742212376728
H           -8.69706190839552       -0.39299666982235        1.55778665305987
C           -8.76584226855965       -1.48409618820808       -0.42051438319115
H           -9.04246283266860       -1.20168545682348       -1.44388305780770
C           -8.42249500194434       -2.97767826801943       -0.39431465748787
C           -9.96967913325620       -1.24992649376824        0.50336204671285
H           -8.10659436734796       -3.26773262914873        0.60567114310273
H           -9.30066669932046       -3.55327051185269       -0.67312324892090
H           -7.61616609287825       -3.18324496828239       -1.09366660460808
O           -9.65665710482695       -0.60860151476928        1.62328755060097
O          -11.07787335370642       -1.62949047331348        0.24598324250244
