42
 energy: -62.486133510369 gnorm: 0.000479810536 xtb: 6.7.1 (edcfbbe)
N           -1.69539227693451       -0.82720146233827        1.22368316346455
H           -0.77595003888477       -1.22276980469877        1.06946023766529
H           -2.12046397312909       -1.33730506580244        1.99401080984127
H           -2.60137432421032        0.85725739723444        1.45505247381819
C           -2.52784202364102       -0.96246874085070        0.02800636606742
H           -1.92939102857646       -0.62043127090365       -0.82671640642395
C           -3.03428373081310       -2.37782732543649       -0.24138476861647
C           -3.68523531601366        0.01320404904228        0.17773727697338
H           -3.59415452579953       -2.74384919346672        0.61717384240089
H           -3.69866375961467       -2.36326002843118       -1.09861754831029
H           -2.20179705738035       -3.05087763685017       -0.43682615950961
O           -3.46813113055332        1.02721475453098        1.03393694637537
N           -4.73996722747338       -0.16664889396870       -0.48184833399019
H           -7.51670159064754        0.81523205184184       -2.20899758267263
C           -5.85431638191152        0.75315033640663       -0.34840758256050
H           -5.90365962019466        1.13950716290211        0.67966218226668
C           -5.69043323113074        1.93018640210280       -1.31699736110004
C           -7.09012597117032       -0.09840306878250       -0.57817703399278
H           -4.68936493845556        2.33812054204947       -1.16120980895408
H           -5.71378650608239        1.55740312722411       -2.34691620880406
C           -6.71902748879592        3.05368536583373       -1.11186334360345
O           -7.86069583639008        0.09664516585971       -1.66336025796466
H           -7.70641806097304        2.62035998935752       -0.91233070987703
C           -6.33795899931589        3.92206494619009        0.08521958577895
C           -6.81128349275704        3.91514240441223       -2.37124129787651
H           -5.38717215425829        4.41874874084998       -0.09594731263745
H           -7.09574136219028        4.68266291303683        0.25818461675856
H           -6.24409238830143        3.32382420496789        0.98765208556193
H           -7.14752522939830        3.33290703780310       -3.22764013706833
H           -7.51312273635276        4.73191738193819       -2.22143201739176
H           -5.83823074503730        4.34021601113200       -2.60812771666975
N           -7.31640272210991       -1.00367168714866        0.26728430682165
H           -6.86112934734157       -1.81815699577648        1.77995240890419
C           -8.40356010520759       -1.94623342725138        0.14853886068768
H           -9.36681503554409       -1.44071250903584        0.00607231661378
C           -8.18910042180545       -2.93948706193025       -0.99945006297185
C           -8.44533634742828       -2.73668889165265        1.46656043512059
H           -7.20774876132092       -3.40054479005038       -0.90758703002745
H           -8.95322332317452       -3.71036337737901       -0.95377472548997
H           -8.24977702693197       -2.42407434021577       -1.95403587075406
O           -7.39471797394552       -2.50918059698896        2.24564705493582
O           -9.32607705258168       -3.50131963885310        1.74798946892033
