42
 energy: -62.486133512086 gnorm: 0.000479466735 xtb: 6.7.1 (edcfbbe)
N           -1.48083818377397       -2.15778017626469       -0.31882933758439
H           -0.47364725317312       -2.25108379711190       -0.36848882072636
H           -1.86914701221941       -2.59798213918291       -1.14892956331020
H           -2.90289626080614       -2.42635029460164        0.90147843905156
C           -1.87609642217085       -0.75004053141979       -0.27705863758604
H           -1.24613382287027       -0.25726057460618        0.47475749572041
C           -1.75069741633245       -0.01069811303366       -1.60590895338859
C           -3.30681741392589       -0.70514454653262        0.24927929598654
H           -2.34599503880551       -0.50907165650874       -2.36827867823346
H           -2.12379516513918        1.00090647151251       -1.49022029150432
H           -0.71199811709135        0.01957572743083       -1.92862217842412
O           -3.64876307071297       -1.79487203806864        0.98038461444270
N           -4.00283659644079        0.30907571221619        0.03046741214552
H           -5.35349049641146       -1.44739172535239        1.86052911722951
C           -5.37412548455663        0.58239737727420        0.39307551823613
H           -5.35646434860069        0.99473399920634        1.41512254708219
C           -5.85361365422209        1.67096705351314       -0.57675675914793
C           -6.31921140742479       -0.60673975295853        0.42945630113074
H           -5.05360544171726        2.40912292562081       -0.64653310829789
H           -5.96820551081630        1.21099836696883       -1.55804343362659
C           -7.15784279513524        2.36538979417598       -0.17248699319609
O           -6.23337994886774       -1.47239722256920        1.45532198321710
H           -7.88964190292844        1.60216106566433        0.10698663068827
C           -6.94923513780094        3.30236250306809        1.01560980603098
C           -7.70796707003536        3.15141103630576       -1.36146560276725
H           -6.21298165078585        4.06559294011460        0.77204276926016
H           -7.88259688967980        3.79769064976729        1.27332059597626
H           -6.60543735370952        2.76105023526085        1.89354682442450
H           -7.91546481860206        2.49129763203159       -2.20004671004172
H           -8.63137592011956        3.65718562216631       -1.08931795401665
H           -6.98917003294494        3.90195034631084       -1.68344722180959
N           -7.20758923529078       -0.70025499637368       -0.46017939377792
H           -7.89533449506484       -0.16918080530637       -2.03727711557360
C           -8.16619457864592       -1.77873418914656       -0.48288581111805
H           -7.70138610765751       -2.74947872044153       -0.26866946311344
C           -9.30308718715620       -1.54495363466835        0.51904467236961
C           -8.77110437672474       -1.80472077401602       -1.89450466573160
H           -9.76565166932439       -0.57634291013172        0.33841834268955
H          -10.05162913921418       -2.32340909442310        0.40168912110097
H           -8.91092915986803       -1.56866608176366        1.53266930866912
O           -8.49520655856901       -0.71489587418353       -2.60110561034542
O           -9.44460712652367       -2.70844601541976       -2.30520902163510
