42
 energy: -62.486133515282 gnorm: 0.000479714000 xtb: 6.7.1 (edcfbbe)
N           -1.66888597497938       -0.64304419861008       -2.13678734864276
H           -0.98787600327065       -1.29282800514447       -2.50963150412095
H           -1.17722897899446        0.21160951849921       -1.89052939069063
H           -3.39612955472428        0.04521351682786       -2.57547047152723
C           -2.33284815911754       -1.19253716913441       -0.95671716679023
H           -2.61317702869028       -2.22745807425655       -1.19175420081736
C           -1.48593654077276       -1.17564920308995        0.31371422425127
C           -3.63835563260914       -0.42150974314027       -0.77652998486632
H           -1.19143082520634       -0.15589657984308        0.55321091202924
H           -2.06566013744623       -1.56639012889777        1.14273710953749
H           -0.59176113073410       -1.78170859011352        0.18190121230476
O           -4.07780981593067        0.18448965172428       -1.88492174882988
N           -4.19818234362267       -0.44615180253236        0.34993572243757
H           -5.66772240210668       -1.97377500869403        1.59681980774543
C           -5.46823378609084        0.19755902225523        0.65026199029218
H           -5.46038329093035        0.32739626650698        1.74271782568054
C           -5.72627760678155        1.54841897786713       -0.01882222316957
C           -6.51343204685409       -0.84280587589446        0.31329418828713
H           -4.83686404541862        2.16884239990875        0.11331659932463
H           -5.86816443352405        1.38438009959304       -1.08544282039919
C           -6.94860651740137        2.27669536505241        0.55237160025971
O           -6.45576414312683       -1.98158393926618        1.03744647832746
H           -7.75867748967420        1.55067888833357        0.67202535055043
C           -6.64524396576322        2.90677576432079        1.91039623655914
C           -7.40703714480487        3.35507601033041       -0.42776309813809
H           -5.84925127943981        3.64286642585794        1.81592600413918
H           -7.52830674510834        3.40800717593557        2.30016579709311
H           -6.33584732922089        2.15922471263817        2.63674379645500
H           -7.69644678861808        2.91474977304956       -1.37868617417965
H           -8.26129748851367        3.89602285199371       -0.02725115981479
H           -6.60488667953166        4.06774178317784       -0.60800011151451
N           -7.30902113887968       -0.66592500161708       -0.64300009429911
H           -7.74196886108461        0.26526884508008       -2.11466056379989
C           -8.26660724904677       -1.66300950197306       -1.05721082466336
H           -7.82111100977755       -2.66536733713514       -1.10055603252264
C           -9.48386241605014       -1.70377690476026       -0.12733529071538
C           -8.73984976733683       -1.26654452758188       -2.46531626198012
H           -9.91190742585036       -0.70771869092606       -0.03201844945682
H          -10.23077859793665       -2.37311824207895       -0.54468096696701
H           -9.18717034000259       -2.05927681382708        0.85627931044813
O           -8.31713700309356       -0.06824993777420       -2.84547271451770
O           -9.43905214204185       -1.96871753920014       -3.14177038747197
