42
 energy: -62.486133518810 gnorm: 0.000479290738 xtb: 6.7.1 (edcfbbe)
N           -0.76210802868416       -0.16563617273543       -0.77895532476069
H            0.00085407566570       -0.69314172875244       -1.18546896021590
H           -0.48334270621540        0.10373127604327        0.16063347894263
H           -1.92752582888356        1.26836481051823       -1.23245475245365
C           -1.98533084729881       -0.96382339453093       -0.72432578934863
H           -2.10366271808638       -1.43751027597665       -1.70875025424344
C           -1.99305303677480       -2.04015339434684        0.35877376060293
C           -3.15261657882160        0.01376754982485       -0.57001679515406
H           -1.85682905487286       -1.58453144786208        1.33761511137881
H           -2.94400251803992       -2.56238470782348        0.35804962046992
H           -1.19144350733892       -2.75586712020625        0.18596417452248
O           -2.87619112683399        1.25734213900975       -0.98495116239383
N           -4.22344318183795       -0.41792155641542       -0.07454152330166
H           -5.11294257926094       -1.65321566671441       -1.24716256991476
C           -5.49350962270666        0.25309283634382        0.07253313998633
H           -5.67043700373548        0.34702993038105        1.14918523199296
C           -5.60859097192324        1.64017718899841       -0.58902265687540
C           -6.53818581229011       -0.70037676885905       -0.48824902638546
H           -4.82573692653213        2.27370623388292       -0.16959558209244
H           -5.40487733838228        1.52610541757518       -1.65685307392664
C           -6.95565906257865        2.34646532414283       -0.41554372435228
O           -6.08663508069816       -1.67166265106485       -1.29704333776967
H           -7.73998947458515        1.72522751252394       -0.85547689824207
C           -7.28730524412686        2.59001985516511        1.05443174233290
C           -6.92120947881051        3.67624284405531       -1.16823658626710
H           -6.50374070996126        3.17922283147225        1.52730155330720
H           -8.22394400964164        3.13532297432689        1.13977327336223
H           -7.39110711278572        1.65239653899441        1.59365641048548
H           -6.70411899581616        3.51844975417776       -2.22215115543077
H           -7.88172866417317        4.17924187643202       -1.08916352592484
H           -6.15546471599382        4.32957525590796       -0.75469624179364
N           -7.74961258356598       -0.55758809585675       -0.17029884990637
H           -9.11398865514673        0.47085734170241        0.51139064970318
C           -8.77487247299675       -1.43406153252039       -0.69414585167305
H           -8.63365416944468       -1.63955755645384       -1.76270139364714
C           -8.81538064648180       -2.76639956514444        0.06344839310077
C          -10.12570002097334       -0.73148295037144       -0.49997251323570
H           -8.90676524466633       -2.58240207722623        1.13213301241359
H           -9.67110200636286       -3.34469211193456       -0.27356455869459
H           -7.90267449585614       -3.32643364982855       -0.12355144184292
O          -10.06154357353977        0.34412677567681        0.27551414885475
O          -11.14701952898329       -1.13364966390203       -0.98457513849298
