42
 energy: -62.486133509178 gnorm: 0.000480249234 xtb: 6.7.1 (edcfbbe)
N           -0.93479723827046       -0.41395828550285        0.52241262680377
H           -0.00891713292276       -0.64069376835923        0.18093013240063
H           -1.08990167828749       -0.95539478081677        1.36837026784966
H           -2.04311533075564        1.11506687182216        0.90490346148721
C           -1.95611830419759       -0.74367173606014       -0.47006630282661
H           -1.61263905748861       -0.34497440909942       -1.43377423487419
C           -2.24322679438696       -2.23654931161783       -0.61468398840006
C           -3.20811366184845        0.03676225633528       -0.09445117554134
H           -2.59190474060298       -2.64325685888639        0.33198718728724
H           -3.01830095168063       -2.39249643096915       -1.35685937414677
H           -1.34345163360229       -2.76737552582001       -0.91979740977568
O           -2.99448436133460        1.11374312430365        0.67465568223173
N           -4.33377433915446       -0.35037920042304       -0.50303575638326
H           -5.56394758298614       -0.95391795322609       -2.08439687383401
C           -5.54114154901977        0.39333120803507       -0.20146324579454
H           -5.62654203932065        0.58521218508823        0.87259259144395
C           -5.58282598231856        1.72920135784726       -0.96733263666054
C           -6.68077783667954       -0.48681564776455       -0.65615359683448
H           -4.75889620171277        2.34850603159635       -0.60893679563140
H           -5.41093108154711        1.52179048658459       -2.02806213448845
C           -6.90184596986179        2.49307804014171       -0.81345786377653
O           -6.49601819113261       -1.08439940046661       -1.84352395714441
H           -7.72461436158568        1.84188090771641       -1.12745102094085
C           -7.14440190871353        2.91676506728665        0.63237371197165
C           -6.88203005342935        3.72055458795049       -1.72332843762784
H           -6.31170791281648        3.51528933171068        0.99618388173139
H           -8.05184305928111        3.51164203198931        0.69992201350124
H           -7.26168161290929        2.05121107428385        1.27798177672258
H           -6.73747995721825        3.43171205434785       -2.76213866891585
H           -7.82135101986681        4.26252143530841       -1.64798971626935
H           -6.07467946246113        4.39151450500947       -1.43693114912202
N           -7.68441595840346       -0.66076843355868        0.08495554129535
H           -8.75712914270266       -0.02233464985874        1.39048994563754
C           -8.79321073887019       -1.49630491328600       -0.32415750765035
H           -9.03130408144238       -1.37043903996010       -1.38797549279801
C           -8.50831732565617       -2.97729183797779       -0.05401450227943
C          -10.01404880076607       -1.07267004486203        0.50615236251933
H           -8.22742117645505       -3.11652979550422        0.98787194988934
H           -9.40206048620426       -3.55811856934462       -0.26361467123533
H           -7.69517443814384       -3.31898902717973       -0.68941836447895
O           -9.72241006707200       -0.20928729317401        1.47170027067395
O          -11.11923803670756       -1.49519148795603        0.30846647733234
