42
 energy: -62.486133515911 gnorm: 0.000478793366 xtb: 6.7.1 (edcfbbe)
N           -0.89350016698182       -0.90978351126264        0.46316493137572
H           -0.56831490870144       -0.06929048975229        0.92943771959594
H           -0.08448716465648       -1.39054982204943        0.08806861091196
H           -2.41892483655224       -1.40065440486318        1.44943011318438
C           -1.84415753421331       -0.58105425204926       -0.59931975340422
H           -1.60231721914702        0.34146641224179       -1.14255777453128
C           -1.93687214626516       -1.73649112187328       -1.59639065977059
C           -3.20433813086026       -0.40692131115954        0.05548280692821
H           -2.17754992352153       -2.66326244967148       -1.07943717704623
H           -2.71440463005009       -1.52490742125594       -2.32416421239621
H           -0.99098793369376       -1.86197684616438       -2.11860787746322
O           -3.31865354534230       -1.05909144864378        1.24838039952686
N           -4.07431328525925        0.28661128627652       -0.51145113459949
H           -4.94255499540161       -1.67227092383694        0.94325655728030
C           -5.42707842790651        0.54204995977610       -0.06706214939371
H           -5.38923572617673        0.92710366075071        0.96772851800784
C           -6.01049923388791        1.61745050005208       -0.99103239140587
C           -6.31128628940794       -0.69143458073572        0.00880687152558
H           -5.18752225897450        2.26834561705598       -1.28944185808402
H           -6.38617868810413        1.12484792955771       -1.88739601935627
C           -7.12082974095345        2.45994461068046       -0.35284126736781
O           -5.83607241990618       -1.80615613946872        0.58282882298762
H           -7.79848359847001        1.79176333392586        0.18624252319962
C           -6.54674586018426        3.47702101428861        0.63220411955695
C           -7.90972458468167        3.18772015407679       -1.43982164187303
H           -5.88603579035077        4.17088977914642        0.11634588540388
H           -7.34768760646766        4.04845687808739        1.09570461175094
H           -5.98038584696843        2.99081713173418        1.42296953575919
H           -8.37223605552495        2.48347761727322       -2.12655965907830
H           -8.69490786129581        3.79568250282193       -0.99695667126337
H           -7.25163640013655        3.84106534019648       -2.00871596868155
N           -7.49604003087287       -0.60193398630232       -0.41504974999818
H           -8.69563656580491        0.22594835385566       -1.47705768919772
C           -8.42465187915808       -1.70557955638444       -0.33583869280631
H           -7.95009826103693       -2.66473218862463       -0.57844127756102
C           -9.06027414414969       -1.80520661944461        1.05557545911137
C           -9.53875575639242       -1.43005887053372       -1.35701652836276
H           -9.50017268212338       -0.84891110517073        1.33208928988711
H           -9.83764261530460       -2.56386864547071        1.04175080821194
H           -8.30501307417303       -2.07440057845821        1.78977092003466
O           -9.49241137705654       -0.20648042409256       -1.86922483086157
O          -10.37757206478762       -2.23767130676605       -1.64591847552500
