42
 energy: -62.486133512842 gnorm: 0.000479692009 xtb: 6.7.1 (edcfbbe)
N           -1.84919640091296       -1.08132839000956        1.39255468675593
H           -0.91157923639267       -1.45336397746817        1.29966753670529
H           -2.37661122509950       -1.72608893396812        1.97580845239815
H           -2.78674447180154        0.55436973742035        1.80450733558788
C           -2.49598108593838       -0.95988374472366        0.08604445961169
H           -1.78815443821300       -0.44850114883017       -0.58005923178800
C           -2.91797550931102       -2.28466245946378       -0.54451409352951
C           -3.68607100640455       -0.02988594438114        0.26645170570357
H           -3.60753633635374       -2.80726543671115        0.11493015610035
H           -3.42637118240012       -2.09090295020051       -1.48271336966751
H           -2.04941935163078       -2.91513572247812       -0.72499002804084
O           -3.59328451146642        0.80897609508709        1.31288071570251
N           -4.65095622658140       -0.08644274659548       -0.53744589775198
H           -7.31218304954525        0.66062262655533       -2.34078538041760
C           -5.79061071925200        0.79851279818211       -0.37822091123735
H           -5.84535593360008        1.17449393448307        0.65254897908333
C           -5.66419477038279        1.98018236646112       -1.34507861534081
C           -7.00268092439734       -0.08608883389221       -0.60507294187103
H           -4.69989561314296        2.45495066306861       -1.15046149397085
H           -5.61771383706759        1.60423882133176       -2.37299944286028
C           -6.77626994846706        3.02942282316709       -1.19388638057175
O           -7.69615777025023       -0.00299047324001       -1.75364812884723
H           -7.74395645103487        2.52703763980813       -1.07932757748863
C           -6.54506530244567        3.89240153913635        0.04462085123553
C           -6.83269534805045        3.91205520256835       -2.44054396355191
H           -5.60444353858185        4.43235782447079       -0.04074644994912
H           -7.34814572713747        4.61727977297238        0.15512026427205
H           -6.51107042071374        3.28414346051938        0.94450742633963
H           -7.05509911108198        3.32644045681344       -3.33088771782610
H           -7.60421489092061        4.67058709146330       -2.33333122068364
H           -5.87896641072425        4.41353316002053       -2.59054103209286
N           -7.27149737621114       -0.92077170963589        0.29918641315134
H           -6.93216642810998       -1.55765801778720        1.92316781293615
C           -8.34432155162611       -1.88252210889787        0.19763367590946
H           -9.30218455389995       -1.39171905371613       -0.01745295816895
C           -8.08634823439870       -2.95089310158687       -0.87035255839277
C           -8.44602906104381       -2.57540381709074        1.56711470904087
H           -7.10663340265240       -3.39843644945954       -0.71516677908247
H           -8.84823286007017       -3.72168640277753       -0.79315039839394
H           -8.11872164660775       -2.50545804596457       -1.86068113957274
O           -7.47389518454772       -2.23212684327418        2.40329002741630
O           -9.30756020689567       -3.36441550464320        1.84095766669041
