42
 energy: -62.486133512790 gnorm: 0.000479940034 xtb: 6.7.1 (edcfbbe)
N           -1.11002629882017       -1.56632170120654        0.19380333389487
H           -0.76940697913931       -1.15286450518536        1.05569638590996
H           -0.30710880035676       -1.86816072183534       -0.34519037335206
H           -2.83041069168422       -2.30208143232751        0.65449277886731
C           -1.91012833779771       -0.60439515744027       -0.56311776891124
H           -1.50853767783512        0.41765286322132       -0.55359481740889
C           -2.05071531432290       -1.07492858850180       -2.01125258068784
C           -3.29746123065777       -0.58100917744547        0.05987287619771
H           -2.45871537554322       -2.08318712619401       -2.04036356797156
H           -2.71910854799587       -0.40795002127017       -2.54716086745503
H           -1.08121233398333       -1.07525549532985       -2.50497089299134
O           -3.62669474491586       -1.73199943417958        0.69256818517435
N           -3.98887835658891        0.45420855071807       -0.05396512741906
H           -5.24014810434882       -1.31003085843916        1.84672696549367
C           -5.35597882153578        0.69112533329990        0.34946648489373
H           -5.30945324018347        1.11694212592066        1.36466009970763
C           -5.89759781053675        1.75956193782549       -0.61073975007423
C           -6.26996816577759       -0.51894126943531        0.43247444849796
H           -5.11996265524022        2.51771058554607       -0.71224564293330
H           -6.03420193416319        1.28996825619331       -1.58472950651919
C           -7.20595060134176        2.42113533211887       -0.16631273323789
O           -6.13137050050674       -1.36135422295585        1.47365597602695
H           -7.91209614902785        1.63895982243619        0.12641577939838
C           -6.98864821530859        3.35501083978934        1.02263274069519
C           -7.80516278817896        3.20159487648003       -1.33500037371668
H           -6.26844492246336        4.13034136952826        0.76957547164880
H           -7.92443328712416        3.83485631921754        1.30014436820020
H           -6.62123360366445        2.81446842015382        1.89146785085694
H           -8.01871340118391        2.54199179049101       -2.17243424314545
H           -8.73296365462423        3.68324894417130       -1.03531451871982
H           -7.11306804611623        3.97119863331857       -1.67018891260745
N           -7.18489043383229       -0.65008260087188       -0.42431110073232
H           -7.92578378692761       -0.17457488113654       -1.99418697961797
C           -8.11745059807543       -1.75107976596257       -0.39403238814786
H           -7.62081575306242       -2.70596659258837       -0.18034988520019
C           -9.22363584674445       -1.52768660299336        0.64398385270214
C           -8.77211119071131       -1.81786567506758       -1.78200943373970
H           -9.71490714819341       -0.57288158423436        0.46561381872187
H           -9.95736399606322       -2.32474909461732        0.56347524569303
H           -8.79679746128282       -1.52714584653301        1.64374506866037
O           -8.53602193777240       -0.74231991137905       -2.52398608358962
O           -9.44861252870297       -2.73916979633787       -2.14607884453441
