42
 energy: -62.486133500528 gnorm: 0.000481939977 xtb: 6.7.1 (edcfbbe)
N           -2.12936144865265       -2.12982928700571        0.98659263771710
H           -2.22382602853842       -1.90246508756078        1.97121102829447
H           -1.21561581612751       -2.54571839924192        0.84911394729116
H           -3.98385741209896       -2.44892748065085        0.47744359072673
C           -2.28325095301096       -0.93142531824022        0.16496009493465
H           -1.76141334310123       -0.04784227210239        0.55715181132411
C           -1.79022055100871       -1.21570861964008       -1.25475812048765
C           -3.77126693423567       -0.62191726300165        0.10551542954224
H           -2.31338530208336       -2.07584702081979       -1.66793679512360
H           -1.97185702977411       -0.34991252153345       -1.88462945010712
H           -0.72313521522224       -1.42743633797094       -1.24943436352200
O           -4.56455682244768       -1.69830488474034        0.23680185872431
N           -4.13388533101692        0.56436117416089       -0.08335102134362
H           -5.91296892587135       -0.39662187720939       -2.13175074754636
C           -5.50490770969795        1.01059127020007       -0.18962139436856
H           -5.72500071157985        1.51988553347420        0.75575808300038
C           -5.57633966187368        2.03264004186355       -1.33593382187704
C           -6.53284815057715       -0.08712236677217       -0.34944170173304
H           -4.89155615197036        2.84459236628349       -1.08803743039340
H           -5.20041851719144        1.57298477708436       -2.25597736025083
C           -6.98058786156286        2.59450874177581       -1.58615632801526
O           -6.59671549139662       -0.72583204747657       -1.53561184507674
H           -7.65488922557718        1.77049214258103       -1.84632464242233
C           -7.53810212477991        3.29461996787753       -0.34940145328688
C           -6.93216422358746        3.56585608149787       -2.76494844747325
H           -6.84210529481269        4.05158222383511        0.00555555721906
H           -8.48024075639642        3.78128051125484       -0.59025896797887
H           -7.72293729880495        2.58338123219282        0.45105492928295
H           -6.54827177158715        3.07672780501485       -3.65785952091792
H           -7.92669089167874        3.94528195867367       -2.98575718807956
H           -6.28686087712346        4.41002907104666       -2.53181425527783
N           -7.28754301516186       -0.35780838139492        0.62237174057611
H           -8.00239591329341        0.06708698440363        2.23012413282561
C           -8.29189096591933       -1.39503107172901        0.53501944460462
H           -8.82669017653716       -1.36618166556193       -0.42262352393197
C           -7.67996981382777       -2.78805819708517        0.71905633736897
C           -9.29152088712260       -1.15476520466870        1.67363879974796
H           -7.12733728634984       -2.82717464465175        1.65529979409601
H           -8.47276697484325       -3.53036522602280        0.73755373363661
H           -6.99798640334630       -2.99828912602277       -0.10009808810845
O           -8.86909535730937       -0.26385639216587        2.56452227575076
O          -10.33975673131313       -1.73148684058561        1.76191570214077
