42
 energy: -62.486133510015 gnorm: 0.000480332688 xtb: 6.7.1 (edcfbbe)
N           -2.94350843989717       -1.77509935200492        1.98207436021137
H           -2.03077403649218       -2.17734663140947        2.15734420238308
H           -3.61202084160631       -2.54112934367513        1.93526727874032
H           -4.16768905417606       -0.44920523004170        2.58728089421031
C           -2.95505447612963       -1.03447227672566        0.72176568299129
H           -2.09041772171659       -0.35781589023796        0.72982426807447
C           -2.90412513704519       -1.90597640657026       -0.53159267987356
C           -4.20530431162742       -0.16922736735267        0.73508459867090
H           -3.71646581809389       -2.62835455636748       -0.51380443908008
H           -3.01878222381907       -1.28031862908039       -1.40962158556832
H           -1.95764173382734       -2.43990676838463       -0.58566510463476
O           -4.71251573753482        0.06804571395846        1.95773870192449
N           -4.69315829319183        0.25841027228234       -0.34338453745416
H           -8.20274747790193        1.37979180524297       -1.17508461348585
C           -5.92063163811537        1.01851450318006       -0.32137694132823
H           -6.03528218646842        1.55792363605146        0.63282077069017
C           -5.91631981934555        2.01475372002804       -1.49376819572299
C           -7.07640937439211        0.03541503774122       -0.39394367768686
H           -4.87391527188169        2.17584200189469       -1.77213594863655
H           -6.40201759221776        1.56044674309705       -2.36181940817140
C           -6.56036420612669        3.37062360660421       -1.16617921128455
O           -8.25782415825612        0.46134098145105       -0.88063502134184
H           -7.48669165994936        3.21684012081782       -0.59531729230903
C           -5.62151473578566        4.21861669260660       -0.31055979314645
C           -6.90923489129183        4.11321523313105       -2.45507450260890
H           -4.71643018600050        4.45247075921265       -0.86644224677116
H           -6.10228696902526        5.15201433582298       -0.02676304456908
H           -5.33695884943742        3.69158200471918        0.59682658220608
H           -7.61995152068602        3.54838243401766       -3.05563221184685
H           -7.34867706608292        5.08196260341034       -2.22926367360777
H           -6.01283463898037        4.27418928233514       -3.04935141696116
N           -6.88589460822940       -1.12663371549047        0.04456091994395
H           -5.79396222657385       -2.13550327464892        0.88886648755924
C           -7.86365794536984       -2.18245753598720        0.08777443661425
H           -8.77367446685679       -1.86813164036632        0.61509722295584
C           -8.24691832207098       -2.69807428415998       -1.30200947113095
C           -7.20695499931628       -3.32636889328618        0.88528374750473
H           -7.34908800426387       -2.95049300531563       -1.86274920784316
H           -8.86213785766838       -3.58701492375418       -1.19487570005481
H           -8.80061725381000       -1.93567556137313       -1.84352679941688
O           -5.95178256697841       -3.05851535631346        1.23216330882253
O           -7.76395297733920       -4.35468702100695        1.14973906227149
