42
 energy: -62.486132293201 gnorm: 0.000622658362 xtb: 6.7.1 (edcfbbe)
N           -1.15750194764881       -1.21456353129060        0.87943173463921
H           -0.15879296677632       -1.27185566514603        0.72443978363206
H           -1.49426106331538       -2.15514766824955        1.06525372508940
H           -2.41686000942441       -0.18930075396148        1.90050399426739
C           -1.84277570502764       -0.65847042029258       -0.28520860912258
H           -1.26947662451548        0.21654449522935       -0.61692496463156
C           -1.99945854070371       -1.62735034057799       -1.45680030250243
C           -3.19088987367232       -0.13650468907725        0.19583213212536
H           -2.57460314493495       -2.49988081675391       -1.15117856118961
H           -2.51789691743422       -1.13305451683977       -2.27188871721091
H           -1.02321981434631       -1.95679834148938       -1.80694855256900
O           -3.27014915846664        0.09451004253166        1.51257598024919
N           -4.10592205427257        0.08382525303367       -0.64170322404117
H           -5.01880397449665       -1.38865277295437       -1.44213376626538
C           -5.41083361166333        0.55827657830986       -0.22330716813096
H           -5.43522825750925        0.82708304856595        0.83824422366811
C           -5.73532062888776        1.79053459592502       -1.08851959587831
C           -6.39441946733731       -0.56911999923913       -0.46458867282939
H           -4.95357535933798        2.52949150978870       -0.89619154327575
H           -5.65349896757260        1.49015596425627       -2.13574378621044
C           -7.10412289368874        2.43119808543335       -0.85072744375118
O           -5.93482354463976       -1.60762879332628       -1.18163604543584
H           -7.87800081104876        1.69288639048795       -1.07614231750546
C           -7.27371941780800        2.89477717056761        0.59360601562533
C           -7.27745531083655        3.61386080874559       -1.80291163876596
H           -6.49076808211957        3.60245299656864        0.85950338939081
H           -8.23589536006424        3.38534019880253        0.71776314979164
H           -7.23012598681330        2.05442465185793        1.28064373371889
H           -7.17321779870262        3.29632865528253       -2.83781428472898
H           -8.26294883981315        4.05541449503126       -1.67887810160751
H           -6.53054560733992        4.37921718909135       -1.60133720578169
N           -7.58261874847578       -0.46381984882244       -0.05706373359549
H           -8.95990977862022        0.54387617752085        0.61348502768833
C           -8.56150424692744       -1.49650339056448       -0.31704464128329
H           -8.50944571336283       -1.85514680235939       -1.35324873512510
C           -8.39172030673359       -2.69234642596484        0.62662144189722
C           -9.94826004872577       -0.88474769244787       -0.07327230324327
H           -8.39485292499354       -2.35266280883491        1.66054810864266
H           -9.21332488999665       -3.38711473650851        0.47687746736400
H           -7.45008280651736       -3.19500240836946        0.42055386764559
O           -9.91044870475374        0.30652905273377        0.51112035761309
O          -10.96891135069194       -1.44308076997379       -0.36685519977222
