42
 energy: -62.486133514759 gnorm: 0.000480105229 xtb: 6.7.1 (edcfbbe)
N           -2.66126156907354       -1.63749215836316        1.81809597499959
H           -1.77803170484863       -2.12660012556363        1.89869871176906
H           -3.40057083004616       -2.30256314212437        2.03606284297888
H           -3.60520510044996       -0.07880815835975        2.36414108703513
C           -2.85224570526258       -1.12565948111565        0.46184054542770
H           -1.94627184764502       -0.56893610395014        0.18811834601838
C           -3.12687235525807       -2.20061048446351       -0.58789949938609
C           -3.99892756599406       -0.12964205612443        0.53355812273011
H           -3.99400922893160       -2.78828262371156       -0.29467658359038
H           -3.33646982643964       -1.72995451850708       -1.54214568551991
H           -2.26861021479759       -2.86187231527999       -0.68874435252271
O           -4.22433632769771        0.37898448404340        1.75836661018520
N           -4.67331540859508        0.13094884817138       -0.49565066605940
H           -7.82276528346019        1.04126993005725       -1.91419084687211
C           -5.82692306636837        1.00502002468093       -0.40729823438809
H           -5.86757402353899        1.51538228231712        0.56524437025143
C           -5.76575893630669        2.03709435792937       -1.53739699917858
C           -7.02018862050932        0.06026759480641       -0.47807739548357
H           -4.73478447548314        2.39136261342735       -1.59604198765538
H           -5.97047915129063        1.54155520659762       -2.49137268800260
C           -6.69542766056251        3.24320436027611       -1.32491554195194
O           -8.00830712535856        0.26982931382972       -1.36274393896406
H           -7.65148168705818        2.90643636920875       -0.90439437026745
C           -6.07717784692832        4.23089315767978       -0.33709204394233
C           -6.96968889782649        3.94181269299455       -2.65638642329287
H           -5.15173738931652        4.63710680894216       -0.73960133719534
H           -6.75991004663145        5.05572742656117       -0.14668847470681
H           -5.85490158328378        3.74763563357188        0.61097241940221
H           -7.46064133295299        3.27453194572764       -3.36288415850218
H           -7.61134374834759        4.80678826999292       -2.50604450591664
H           -6.03700569397909        4.28177423727151       -3.10092934038709
N           -6.98549173550536       -0.90294127006302        0.32978380210622
H           -5.92976733116826       -1.68818731660835        1.43776234008929
C           -7.90198541446586       -2.00574916470586        0.43116059965289
H           -8.83523118296756       -1.68496630891317        0.91275377385137
C           -8.23199321940542       -2.69510341792843       -0.89449327565831
C           -7.21612972460268       -3.02001687945519        1.37301597302998
H           -7.31126151486051       -2.92396102019549       -1.42813761912360
H           -8.76191177493365       -3.62076614771119       -0.68711525045946
H           -8.84946212674342       -2.05257888251252       -1.51555747466136
O           -6.04004806283104       -2.59971177069019        1.82637927093722
O           -7.69068493434185       -4.08524804451367        1.65345914079984
