42
 energy: -62.486133515545 gnorm: 0.000479473048 xtb: 6.7.1 (edcfbbe)
N           -2.04838959362399       -1.93512349018763        1.20507432763933
H           -1.87082011847746       -1.41450955174817        2.05811027768317
H           -1.23173179507631       -2.50250406483897        1.01061420243333
H           -3.98886299674999       -2.12058322224653        1.25151305823618
C           -2.32587791756741       -1.02680582002678        0.09493008320737
H           -1.66793696703539       -0.14752150082425        0.05923879216953
C           -2.22033409243470       -1.78624524686618       -1.22876925724290
C           -3.75946719828076       -0.54838013841535        0.25879535661336
H           -2.89346822789192       -2.64100282065574       -1.22495730337099
H           -2.48489118125340       -1.12785511225573       -2.05078228996006
H           -1.20384159984263       -2.14320479299897       -1.38003336286340
O           -4.55826846563440       -1.39479916783394        0.92240993102740
N           -4.09089587517332        0.55826648837732       -0.23776850208543
H           -5.68809804054527       -0.10740638010900       -2.26681221126670
C           -5.45085124574835        1.06438421688194       -0.18917050590022
H           -5.66187461613755        1.39827227710735        0.83313053619633
C           -5.54652380476013        2.25279521864948       -1.15586647644706
C           -6.45591769155507       -0.01303911924327       -0.52045880160882
H           -4.89482738762742        3.04038125139979       -0.77550894017347
H           -5.14501749835424        1.95418460731430       -2.12885988510060
C           -6.96827183926569        2.79631181996896       -1.33684113579140
O           -6.39072934171678       -0.53836802583050       -1.76340692425963
H           -7.60465849655158        1.99979300618522       -1.73982779464363
C           -7.56835789486070        3.26177499533000       -0.01253959588626
C           -6.94628653720707        3.94837779782079       -2.34032452366514
H           -6.91331127679239        3.98520098596120        0.46826333734910
H           -8.53224902315102        3.73456728586250       -0.18587048542606
H           -7.72142569889053        2.42273915595606        0.66069125557306
H           -6.53647757598594        3.62558119431462       -3.29507111620379
H           -7.95235439008017        4.32359218622240       -2.51052497162789
H           -6.33485703221138        4.76529002983129       -1.96318821230754
N           -7.26461401970717       -0.40629519836131        0.35862908202833
H           -7.97763170876640       -0.27389553408659        2.01263044270457
C           -8.22124062138673       -1.46054201459391        0.10740073376092
H           -8.77055499488378       -1.29466238893330       -0.82786506542422
C           -7.55493814587377       -2.83996484485733        0.05360306070509
C           -9.21550686248253       -1.45271909342934        1.27752988502512
H           -6.95178343519676       -2.98955288230149        0.94646901482498
H           -8.32209707899845       -3.60748684110682        0.00236198038600
H           -6.91425492819816       -2.90692364159470       -0.82162770827142
O           -8.82438384791037       -0.69451324893631        2.29455167165222
O          -10.23231017076062       -2.08963419950343        1.27906324177394
