42
 energy: -62.486132087636 gnorm: 0.000757004316 xtb: 6.7.1 (edcfbbe)
N           -1.60099352099583       -1.49976974402789        1.14798516095699
H           -0.61886287184157       -1.73041361717403        1.06170859273567
H           -2.10449101976385       -2.36451873339291        1.32832093678529
H           -2.76703350466472       -0.25086727157995        2.04742863755021
C           -2.10381940401190       -0.87666859814497       -0.07484484377769
H           -1.38709949703289       -0.09567320208540       -0.35995188761672
C           -2.29413966133583       -1.83565219074456       -1.24859980804947
C           -3.40234361622768       -0.16809266669771        0.28618587286672
H           -3.02571115123903       -2.60054804658153       -0.99473410781444
H           -2.65495363117106       -1.28623665994407       -2.11209515272759
H           -1.35125239994834       -2.31678519876632       -1.50085308295433
O           -3.53939072385791        0.13250668335831        1.58528779663188
N           -4.22976446392732        0.11103302718706       -0.61984437027593
H           -5.62340241958669       -0.50679085126641       -2.25689540352487
C           -5.47994395519460        0.78032653398934       -0.31028071308832
H           -5.55980896511555        1.04582250016096        0.74843305414713
C           -5.60711146933551        2.03146055965029       -1.19187527224891
C           -6.55436896059907       -0.22738191332847       -0.64329597397430
H           -4.86167930092672        2.75639062586357       -0.85862176744180
H           -5.35901751421960        1.75849634405657       -2.22129778406550
C           -6.99936364706483        2.67083354450470       -1.16010375710044
O           -6.46093036217159       -0.79028328588466       -1.86035555839217
H           -7.73409660245408        1.92624445986563       -1.48652900711918
C           -7.37602664023029        3.13549251627586        0.24408012280263
C           -7.03897325231035        3.84831582577283       -2.13303156016451
H           -6.62079626965889        3.81464013587219        0.63440505967445
H           -8.32895315423741        3.65872756936054        0.22133260722676
H           -7.47147763594180        2.29060682143085        0.91992047073989
H           -6.79703470283038        3.52648801999425       -3.14373286539501
H           -8.02970872726649        4.29601179046563       -2.14568551517957
H           -6.32247740562510        4.61048543084331       -1.83394906223767
N           -7.41827153085931       -0.53591254788515        0.21889975163482
H           -8.30243046957238       -0.15826268947840        1.75242954595191
C           -8.44452291800399       -1.52042595345065       -0.05033600682024
H           -8.89119513049597       -1.38220046840647       -1.04284833369490
C           -7.90071080176319       -2.94954712343158        0.05117348064512
C           -9.53878393208568       -1.33856801679835        1.01253307403057
H           -7.40438194284134       -3.08957263520502        1.00965206328183
H           -8.72493413262657       -3.65284904644672       -0.02965713237951
H           -7.18805724043144       -3.13279778391162       -0.74919148619087
O           -9.19882101760361       -0.49914718469023        1.98269640299640
O          -10.58905569055146       -1.91694277749373        0.97507283514895
