42
 energy: -62.486133502804 gnorm: 0.000480916440 xtb: 6.7.1 (edcfbbe)
N           -1.63905893228912       -0.88042981402074        1.53376106806605
H           -0.73497290417049       -1.31078694561500        1.38017608114827
H           -2.10651814150139       -1.41120519261434        2.26434179617663
H           -2.44340975104699        0.86303744821515        1.77361330001486
C           -2.44529076685569       -0.91708165281737        0.31237615959538
H           -1.81463780558045       -0.53237530778659       -0.50083241889899
C           -2.97298124552130       -2.29756830577986       -0.06817309131951
C           -3.57521952069700        0.08393656697553        0.49659500884587
H           -3.58336949897033       -2.70411748681891        0.73472277588676
H           -3.58916813534563       -2.21480980750732       -0.95627113904954
H           -2.14692606148436       -2.97820719464524       -0.26438649589545
O           -3.30550203204801        1.07988021213718        1.36600976224818
N           -4.64293699603655       -0.05306185144627       -0.14927551756941
H           -7.86180081074792        1.75380183753829        0.78271143894124
C           -5.71737833649058        0.90168577597527       -0.03074155601493
H           -5.55957160853395        1.60245324078251        0.80474658737357
C           -5.77292530042492        1.67096662397078       -1.36835290594838
C           -6.99219839724874        0.13061766691181        0.21194822683592
H           -4.78676246381966        2.11572608056401       -1.52165541965915
H           -5.92442740978908        0.92589475830472       -2.15146547413800
C           -6.83512695799724        2.76800670586198       -1.49233479396658
O           -8.07351781785040        0.82213795581360        0.64646803569033
H           -7.82706546115143        2.33975691055878       -1.31189471516831
C           -6.58806104307819        3.91658806332816       -0.51394060596718
C           -6.82544551012891        3.30816097418337       -2.92269207360735
H           -5.61854909093493        4.36984291626786       -0.71003728462097
H           -7.35204352721585        4.68252174465516       -0.62979446693242
H           -6.59683477736252        3.58786755333806        0.52384761387031
H           -7.03321029695082        2.51303466246791       -3.63469740543321
H           -7.58084498203028        4.08135469820562       -3.04210937177015
H           -5.85452769400138        3.73742023289619       -3.16038063362126
N           -6.99315585974963       -1.11515365231923        0.06205454624085
H           -5.99207592355536       -2.58296092871234       -0.05974175133456
C           -8.13493577799648       -1.95445646042350        0.31489453864803
H           -8.67325367459149       -1.66223472448028        1.22609089898879
C           -9.11492193520474       -1.94925331418800       -0.86265592987609
C           -7.58653793118485       -3.38098714764339        0.49477216064720
H           -8.58772490393928       -2.18940266561054       -1.78362934543862
H           -9.88817684617929       -2.69246859317808       -0.68956562487636
H           -9.57166628025590       -0.96744541961816       -0.96050516809745
O           -6.30030517574265       -3.49110400433193        0.19217469454212
O           -8.26315367230210       -4.30160783760793        0.86276340305034
