42
 energy: -62.486134074687 gnorm: 0.000281591620 xtb: 6.7.1 (edcfbbe)
N           -1.82525935322898       -0.92394878150530        1.52922323370813
H           -0.90943294790271       -1.34254929458009        1.41678681032365
H           -2.35398134103783       -1.51887781516398        2.16223440934069
H           -2.67009866334313        0.79598874733180        1.85025005431409
C           -2.52036266924872       -0.84543844869118        0.24378500139886
H           -1.83387296454334       -0.35704769077749       -0.46200928462831
C           -2.96232226974563       -2.18801304849079       -0.33156896797048
C           -3.68931402557985        0.10845130024647        0.43295204567807
H           -3.54141104523857       -2.74263034753693        0.40272740049665
H           -3.58501917402851       -2.01550530838854       -1.20230875386085
H           -2.09586733577187       -2.78105639738552       -0.61724902800226
O           -3.50222079986949        1.03402053577259        1.39557889767171
N           -4.71106656868049        0.00451142165998       -0.28979074407596
H           -8.10571244094519        1.73704419073444        0.19516513326623
C           -5.80934485499586        0.93507800613882       -0.17254381044506
H           -5.66913593345705        1.64370758291019        0.65875881083616
C           -5.85614468715619        1.68910308625601       -1.51997069098149
C           -7.05529949175482        0.12579886560803        0.10200822732591
H           -4.85476694113232        2.09971648352740       -1.67278632685863
H           -6.02049265990875        0.93974485296634       -2.29668364228780
C           -6.87036033583250        2.82656867816783       -1.68793195398631
O           -8.22790302469421        0.78210282453462        0.25830276105069
H           -7.89004239502719        2.42614729346447       -1.65290749636080
C           -6.70640979746127        3.91239303002764       -0.62406292178903
C           -6.68213150081296        3.44310662768919       -3.07531966665834
H           -5.69618191632995        4.31487127541371       -0.65693285436078
H           -7.40347563720368        4.72729109893754       -0.80826269048151
H           -6.88491364613960        3.54158012881462        0.38394503387893
H           -6.80371994398567        2.68998185029589       -3.85002720020931
H           -7.41339760261832        4.23011730495164       -3.24448644968626
H           -5.68749774359253        3.87350447866660       -3.16821139488704
N           -6.93788657937436       -1.11121759327606        0.28337746720291
H           -5.83015998411155       -2.46115011107203        0.48284743283009
C           -8.01992565694814       -1.98968579737857        0.64183046343632
H           -8.64880770242342       -1.57002527689402        1.43758954847052
C           -8.90428322897995       -2.33449388636536       -0.56084578709049
C           -7.35958244820799       -3.28327554136701        1.15190646276459
H           -8.28901665633725       -2.70902736691009       -1.37635255587146
H           -9.62005392058847       -3.09935580293170       -0.27273908323427
H           -9.43642440959475       -1.44756934262712       -0.89551848283036
O           -6.05447538070133       -3.32658055793920        0.91685871208226
O           -7.96841558504815       -4.16540689301106        1.69131677246011
