42
 energy: -62.486133511909 gnorm: 0.000480288223 xtb: 6.7.1 (edcfbbe)
N           -0.84075878093623       -0.40175518344949       -0.04317273827316
H           -0.03886834576300       -0.91109446078954       -0.39450031846003
H           -0.80293150773903       -0.43516115768227        0.97206387552261
H           -1.77128816726989        1.26254134394754       -0.29790174817814
C           -2.08816306403593       -1.00417171451995       -0.51056949744745
H           -1.98767572115068       -1.14651365910227       -1.59548605329880
C           -2.44036372486052       -2.33841498572990        0.14151957720335
C           -3.18946917648558        0.03243948693480       -0.30741876596040
H           -2.51227715712399       -2.21845746484932        1.22022785383042
H           -3.40198669385187       -2.68004974330300       -0.22536138918374
H           -1.68068790822786       -3.08423409325262       -0.08430159066655
O           -2.74926051878830        1.30295971849680       -0.27316162482536
N           -4.37413448568676       -0.36325193423489       -0.18891029446975
H           -5.67252663470770       -0.53539052276171       -2.20883892655229
C           -5.54974493841938        0.46628069288868       -0.05161320013227
H           -5.73494114833007        0.61202114380397        1.01748392994221
C           -5.50507458828278        1.82940037582324       -0.76625071988995
C           -6.68282674421621       -0.36932508981880       -0.61006151167328
H           -4.78260884157105        2.46780013582385       -0.25733737999190
H           -5.14234559803635        1.67848731549309       -1.78841364764787
C           -6.86189999882511        2.54103805270396       -0.82099161456234
O           -6.54700477217294       -0.78459869816851       -1.88360365818943
H           -7.58552330059183        1.89185649998698       -1.32705903998573
C           -7.39176433847975        2.85425366460209        0.57550525850483
C           -6.72109355355229        3.82863611688347       -1.63160336351596
H           -6.66556154690000        3.44140280817336        1.13409218371843
H           -8.31418752332336        3.42576109364147        0.50538438774921
H           -7.60339211054576        1.94051352650995        1.12347652163281
H           -6.36636014450097        3.61726532665383       -2.63824192739095
H           -7.67938824601778        4.33633853759138       -1.70756772917923
H           -6.01274116390933        4.50131548470729       -1.15240915949175
N           -7.66093977027862       -0.67207174518621        0.12199072759432
H           -8.68666557705940       -0.35743739665643        1.59185735655305
C           -8.75533824153609       -1.48110407453788       -0.36959952875816
H           -9.02984269228884       -1.22453766474210       -1.40024427746473
C           -8.41119943827629       -2.97341036173256       -0.30358503779047
C           -9.96047958977714       -1.22447856290438        0.54603406886561
H           -8.09775381189960       -3.23672356845411        0.70463102458913
H           -9.28734622516760       -3.55770114646314       -0.57012198378913
H           -7.60200230367509       -3.19550128710553       -0.99460440772779
O           -9.64734220656479       -0.56659196713369        1.65656722042960
O          -11.07043095592892       -1.60036068715830        0.29103216900989
