42
 energy: -62.486133509521 gnorm: 0.000480784006 xtb: 6.7.1 (edcfbbe)
N           -1.89910087472995       -1.18209675761823        1.74336181181282
H           -0.97706497300927       -1.59293000954033        1.65746343345527
H           -2.47800454509136       -1.84267325091068        2.25604246799708
H           -2.77389578649189        0.47358754283043        2.21308340111567
C           -2.48507245369057       -0.94424976182092        0.42308542358346
H           -1.73398352527629       -0.40256358922072       -0.16906827533688
C           -2.90609959892306       -2.20447544392957       -0.32867405225624
C           -3.64944875710598        0.01393486103108        0.61900473236226
H           -3.58347640627240       -2.80048792647637        0.27849900454950
H           -3.41970438661354       -1.92157865339887       -1.24085760750560
H           -2.03377132185064       -2.80606507284450       -0.57635667243350
O           -3.56093163920014        0.78439980788569        1.72219378141345
N           -4.57840378299946        0.05421178455416       -0.22512415384996
H           -7.81474585530376        1.80700475428095        0.77245143050194
C           -5.67169315958316        0.98691388379372       -0.08847191872982
H           -5.50877843182266        1.69984791820420        0.73524875573658
C           -5.77353067079269        1.72958299363982       -1.43678667061525
C           -6.92524442251469        0.19617988700261        0.20007354375035
H           -4.80157722808755        2.19303577735082       -1.62044890704986
H           -5.92229024210879        0.96568526850474       -2.20165123805329
C           -6.86521399496312        2.79728096119657       -1.55897534811252
O           -8.00919982549705        0.86942214279719        0.65191263334588
H           -7.84211077277948        2.34696741616596       -1.35176310340174
C           -6.63079002148285        3.96895551669900       -0.60509529135374
C           -6.89632319640432        3.31283715823424       -2.99804133047216
H           -5.68019930359804        4.44772468781534       -0.83075062471693
H           -7.41974025974090        4.70985026961414       -0.71619552331063
H           -6.60691856591035        3.65795543798501        0.43788225440214
H           -7.09857967633648        2.50102753213802       -3.69236691776688
H           -7.67199300868886        4.06601734862399       -3.11574323992407
H           -5.94057250157459        3.76027218685991       -3.26198451074216
N           -6.90146768259192       -1.05217351869979        0.06919885469888
H           -5.88530293935229       -2.49608945457018       -0.10642673999807
C           -8.01153396217568       -1.91565823203495        0.37696404889902
H           -8.53188865404125       -1.61506256176626        1.29559324461837
C           -9.02331359093512       -1.97135343787393       -0.77214089916364
C           -7.41406324766410       -3.31964577607157        0.57465850601197
H           -8.51488244071359       -2.22013910769294       -1.70142975595308
H           -9.76890691937363       -2.73194913955761       -0.55791891244897
H           -9.51205357221207       -1.00638966140896       -0.88222653195381
O           -6.14643786770374       -3.40544070791777        0.19246960251908
O           -8.03788119374637       -4.24369875635334        1.01824621087028
