42
 energy: -62.486133515356 gnorm: 0.000479557691 xtb: 6.7.1 (edcfbbe)
N           -1.03321421092234       -1.15245857013195        0.00146259861761
H           -0.49257378941981       -0.32097701251177        0.21504244050881
H           -0.40536244641269       -1.83687814001355       -0.40310770898305
H           -2.40672140495565       -1.18473300139450        1.32043512202650
C           -2.12548605643200       -0.84007157167913       -0.92071786721662
H           -1.86746658663218       -0.09122892169800       -1.68060040410730
C           -2.60494492478646       -2.11476496657260       -1.61667854609952
C           -3.27444693051115       -0.30379457691798       -0.08865614056888
H           -2.87273404201349       -2.86816409309199       -0.87858027040850
H           -3.47661738083987       -1.89071225404724       -2.22419428492753
H           -1.82138634573631       -2.51426804965039       -2.25690573341124
O           -3.25783506939789       -0.70932629400000        1.20515719201711
N           -4.13723445249620        0.43727872258762       -0.61637395636354
H           -5.14892790446890       -0.78932698376268        1.88439790566432
C           -5.30956675019419        0.89047633293625        0.11325680063327
H           -5.00897866348380        1.29663093835816        1.09190421546985
C           -5.98620425567027        1.97313930715294       -0.72812860302280
C           -6.20201736939598       -0.30864801618634        0.35396201112185
H           -5.26049522793646        2.77351415044499       -0.88259835095722
H           -6.21014687879845        1.53436992047271       -1.69976304513351
C           -7.26591038622154        2.54781500158369       -0.11442450903152
O           -5.99402485205642       -1.02790780628838        1.47383221375265
H           -7.94648508993687        1.71987241662389        0.10569675583169
C           -6.98451645827812        3.30808883441318        1.18038380378833
C           -7.94107642930335        3.47308749661525       -1.12502366023606
H           -6.24211576308827        4.08567299632091        1.01149884752973
H           -7.89478584961690        3.77880266152257        1.54492656835573
H           -6.61931496086220        2.64349325524635        1.95946430332168
H           -8.17562419381109        2.93587389020927       -2.04040973251996
H           -8.86576789786769        3.87429764372155       -0.71686006762405
H           -7.28642478069826        4.30590073004558       -1.37282160192894
N           -7.06121461004362       -0.62349356865018       -0.51143190661072
H           -7.65495960141668       -0.49964567125826       -2.21110588217053
C           -7.89318829443053       -1.79454684415466       -0.37510813550058
H           -7.34455467957156       -2.64814627349819        0.04365075989344
C           -9.11446493492621       -1.51072979614558        0.50696905214805
C           -8.38941122907134       -2.15641247258220       -1.78307265083867
H           -9.65724907138917       -0.64869251136709        0.12385089081208
H           -9.77129556519549       -2.37597584050968        0.50132998262736
H           -8.79423637869705       -1.30534602970655        1.52555551150034
O           -8.15912363418757       -1.20670837699934       -2.68078917784299
O           -8.94808590199371       -3.18738249567011       -2.03648956815209
