42
 energy: -62.486133516797 gnorm: 0.000479357244 xtb: 6.7.1 (edcfbbe)
N           -0.85145525191196       -0.08071262001090       -1.11735794152781
H           -0.09195473312634       -0.59249398254326       -1.55006327910184
H           -0.53135408427961        0.23177692107914       -0.20464700469681
H           -2.14051924029317        1.27048702913886       -1.60401786851621
C           -2.03542575617720       -0.92454470315508       -0.96665243335009
H           -2.21353396881613       -1.40339479783045       -1.93921059582622
C           -1.91551502664467       -2.00331204680099        0.10805201742485
C           -3.21850181733473        0.01177156342054       -0.72632161597895
H           -1.84579293575369       -1.54848007587103        1.09399247503432
H           -2.78548575019715       -2.65150270394517        0.08566923248621
H           -1.02675966529835       -2.60674820016131       -0.06734197909009
O           -3.05323747217200        1.23443756377398       -1.25180355932421
N           -4.20353177444760       -0.42312849601221       -0.08243342616513
H           -5.10632373217790       -2.01512079594212        0.57965987197148
C           -5.46486681391300        0.22700218651816        0.20293375349131
H           -5.44126410730690        0.45510873111534        1.27980946000636
C           -5.83740398454565        1.49292472973613       -0.57271820538841
C           -6.48647079444589       -0.88749157718542        0.02358593251704
H           -4.96216084199400        2.13667256485628       -0.64633357680554
H           -6.12515674102696        1.19848456991866       -1.58311953359321
C           -6.97537257381613        2.28658386753114        0.08317573313340
O           -6.06618262208472       -2.09796951109526        0.42333431006539
H           -7.74397365287681        1.58564251706670        0.41980523767475
C           -6.47104504676060        3.07788030518498        1.28901245954743
C           -7.59321845586647        3.24178401040230       -0.93611423041844
H           -5.71931810549149        3.80148451509617        0.97958148827759
H           -7.29154419579807        3.61665259633530        1.75718472947428
H           -6.02893380098479        2.42474740597353        2.03787229563486
H           -8.00039819415418        2.69777457669049       -1.78474745782358
H           -8.39820992548443        3.81453393619287       -0.48169393098733
H           -6.84226461899472        3.93872469628998       -1.30272016129434
N           -7.61292366844433       -0.65795278029127       -0.48793791266941
H           -8.67144717836663        0.40463311802961       -1.50255556187888
C           -8.58874087637468       -1.70582984886985       -0.68184497966129
H           -8.12806996129341       -2.63552315291648       -1.04005948609444
C           -9.35808400758971       -2.00231206427001        0.60999417519899
C           -9.58518730448218       -1.20379218925448       -1.73724494842214
H           -9.78989752237748       -1.08451382491244        1.00453034327043
H          -10.15572883612701       -2.70900435238427        0.39925438665447
H           -8.68482632017867       -2.42551575299355        1.35135698671255
O           -9.44053214283579        0.08285831275337       -2.03068410011323
O          -10.42357776136359       -1.90464811926087       -2.23224610348833
