42
 energy: -62.486133509973 gnorm: 0.000480289048 xtb: 6.7.1 (edcfbbe)
N           -0.91330885422254       -1.20490977832886        0.30357539237895
H           -0.55116051096515       -0.54658109098074        0.98504515772238
H           -0.12718139281882       -1.59347671378563       -0.20307746837192
H           -2.45345541325906       -1.90455874705313        1.11125909938270
C           -1.84936002228068       -0.54891867406182       -0.60948050159916
H           -1.57373915203775        0.48253880725485       -0.86342848789909
C           -1.98223409301930       -1.36139785074686       -1.89806382060081
C           -3.20829410223752       -0.52660120084535        0.07475304509574
H           -2.25874967508333       -2.38850263895234       -1.66906688685490
H           -2.74983203163379       -0.91995315395343       -2.52654922575627
H           -1.04021520966901       -1.36494343704127       -2.44216702312835
O           -3.33902701549388       -1.48313282036739        1.03607315637531
N           -4.04170225699934        0.33647006367929       -0.26825160735123
H           -5.05593400354796       -1.78146233209616        1.03540946143081
C           -5.40991107976983        0.52622036595507        0.16067385005750
H           -5.39819136025324        0.78038034927329        1.23542819252067
C           -5.95218003349677        1.71981477665041       -0.63422840584390
C           -6.30863890316072       -0.69465598980113        0.05247986597525
H           -5.13301850570346        2.43224826603994       -0.74077020298045
H           -6.21607454225448        1.36601487205565       -1.63042334136171
C           -7.15508601042912        2.41852538894481        0.00931461715592
O           -5.95965113748654       -1.82812253870492        0.67594599704982
H           -7.85936279262957        1.65558355983626        0.35282927413739
C           -6.72937717695613        3.26841029675891        1.20537037301461
C           -7.85425393072996        3.30007405671617       -1.02410375132968
H           -6.03484359088059        4.04431903994432        0.88981699047872
H           -7.59547472031839        3.74774280191776        1.65581149575536
H           -6.24466587387504        2.66641329937167        1.97015866654844
H           -8.21799040495756        2.70858100864957       -1.86045086347375
H           -8.70213965503316        3.81238119652283       -0.57563941441453
H           -7.16541889105768        4.05023069284274       -1.40696841951487
N           -7.39883874850185       -0.57933177482893       -0.57260066690678
H           -8.42479832753141        0.31284343456952       -1.75477029012515
C           -8.33441955805554       -1.67322670878393       -0.68839361150991
H           -7.83206521251150       -2.62940197649309       -0.88240589210653
C           -9.19398917230163       -1.81365533773764        0.57337585709199
C           -9.26215868723339       -1.34534875327456       -1.86763533822570
H           -9.67038766733930       -0.86310114952628        0.80600961215710
H           -9.96104871036643       -2.56403001114121        0.40420136073125
H           -8.57202822764120       -2.11435332561094        1.41278272534948
O           -9.14504717860202       -0.09397681181648       -2.29476102853995
O          -10.03093742972522       -2.13717533435238       -2.33814282664477
