42
 energy: -62.486133506466 gnorm: 0.000480634602 xtb: 6.7.1 (edcfbbe)
N           -0.78563409101388       -0.24969004619664        0.29615478623841
H            0.13662262237613       -0.38150798874894       -0.10087037045878
H           -0.87010729029583       -0.87926033369461        1.08954869044713
H           -1.97373389107061        1.19884181191413        0.82983252341700
C           -1.82716466067141       -0.54438556831040       -0.68599987295102
H           -1.56387679628998       -0.00705213518293       -1.60702924069777
C           -2.00580994413981       -2.02758858396592       -1.00615128900848
C           -3.10999807090283        0.08813256856708       -0.16848104033763
H           -2.31930870500130       -2.57116462423528       -0.11724126954507
H           -2.76180797403883       -2.15121958724034       -1.77444088118564
H           -1.06862545820777       -2.44883295436566       -1.36481351905635
O           -2.93366353804103        1.13121054149614        0.65390356063231
N           -4.22705001600082       -0.36493488214136       -0.53042322752998
H           -5.12808980319755       -1.89573777366248       -0.87007949029369
C           -5.47349344577679        0.23508272552642       -0.09344019879423
H           -5.44463062197151        0.46631333342811        0.97844584390816
C           -5.67852721507999        1.54233407369275       -0.88464635901636
C           -6.54809722159865       -0.80862308159971       -0.34862835135744
H           -4.83654234214078        2.19124678521237       -0.63156000611473
H           -5.60577824145141        1.29818951125047       -1.94763626822524
C           -6.97994015252921        2.30764764318188       -0.63870429288521
O           -6.09638410548999       -2.00362385889292       -0.74968085007184
H           -7.80913556635684        1.71421219463010       -1.02907513652407
C           -7.21465904552570        2.57659063184310        0.84465249849643
C           -6.93220001537450        3.62619825108037       -1.41038345479244
H           -6.36642506334325        3.10728522496729        1.27290527487183
H           -8.10390936409023        3.18799405727856        0.97746638526984
H           -7.35567866065216        1.64660559092448        1.38859614427198
H           -6.75848547612068        3.44815172392526       -2.46914272841979
H           -7.87409608608494        4.15825378757810       -1.30396891538557
H           -6.13383586055357        4.26228121511809       -1.03290763215320
N           -7.77189977973988       -0.52332709419873       -0.23082367653132
H           -9.16137954688444        0.62162242910461        0.18932328760336
C           -8.79110329236095       -1.51570481152730       -0.50058775640259
H           -8.62287848183946       -2.01359292791117       -1.46388039412485
C           -8.86526885687290       -2.58439774686678        0.59745711748249
C          -10.14174125332459       -0.79043064157720       -0.54122586142590
H           -8.99868870860077       -2.11151059634691        1.56888562134759
H           -9.70835340877137       -3.24118613273986        0.40252529303362
H           -7.94783330883877       -3.16710336015496        0.60813683827581
O          -10.10114450692713        0.43800152039819       -0.03788077841665
O          -11.14583401560192       -1.29734676522793       -0.95919600428442
