42
 energy: -62.486133512554 gnorm: 0.000480381064 xtb: 6.7.1 (edcfbbe)
N           -2.12831466482723       -2.15570352626019        1.09904422930444
H           -2.11478519639625       -1.87349153960573        2.07381815836148
H           -1.25736397283194       -2.63298299987081        0.89990926454306
H           -4.02798203785619       -2.40239086776534        0.79875922541758
C           -2.29727727150341       -0.99529623947270        0.22762848393155
H           -1.71517219811380       -0.11587918211319        0.53567888505994
C           -1.91907418957261       -1.36682841752777       -1.20680579504884
C           -3.77307948635429       -0.62616073093405        0.25542284652997
H           -2.50698736003221       -2.21971481309629       -1.54028604561717
H           -2.10810534051066       -0.52274074248906       -1.86328251437505
H           -0.86426551996664       -1.62644993065842       -1.26561070592401
O           -4.59569905924385       -1.64023135070407        0.56100294801697
N           -4.10495924232691        0.55024221745970       -0.03329707693214
H           -5.62672483652633       -0.14355434522823       -2.18834625270820
C           -5.47538190534562        1.01702241263946       -0.08285525254976
H           -5.74299242440393        1.35379782490065        0.92480455027860
C           -5.52012737585354        2.20998306402333       -1.05098020081351
C           -6.46707122105967       -0.05339694747844       -0.47474303655585
H           -4.88761089475841        2.99385822332825       -0.63273721896782
H           -5.06762799885852        1.91405378331149       -2.00262848103703
C           -6.92799727673165        2.75825482324558       -1.30801152358102
O           -6.35868378778182       -0.56405109857158       -1.71950050621232
H           -7.54603602563507        1.96395540672382       -1.74255281843657
C           -7.59487309365103        3.23033392725743       -0.01866525880374
C           -6.84622281129125        3.90736436322355       -2.31195225908712
H           -6.96314136062954        3.95281740035369        0.49343107111182
H           -8.54659708345131        3.70575628599929       -0.24387954459193
H           -7.78623550349050        2.39417537536175        0.64826983771894
H           -6.38555410013335        3.58012736844148       -3.24176086223295
H           -7.83976095793312        4.28580349037854       -2.53874452298273
H           -6.25319760789846        4.72292867037515       -1.90384876517565
N           -7.32685518574071       -0.43641716848972        0.36081448222471
H           -8.17829780893241       -0.24313214971300        1.94072237771231
C           -8.29498238677814       -1.46317905013674        0.04593928205067
H           -8.75695299401533       -1.29792183035238       -0.93560506090473
C           -7.67200496828358       -2.86312755237938        0.07042986980042
C           -9.38457721436806       -1.40132617121487        1.12529120079453
H           -7.16615399644516       -3.02350612191438        1.01984822292170
H           -8.45452938227050       -3.60648199074486       -0.05261701376929
H           -6.94786083798721       -2.95746292617600       -0.73394063431547
O           -9.05848538906367       -0.63222239197726        2.15779149205147
O          -10.41658924631824       -2.00885042868631        1.05298027195199
