42
 energy: -62.486133519942 gnorm: 0.000479447334 xtb: 6.7.1 (edcfbbe)
N           -1.24209652251841       -1.29810079271443        0.94594233635684
H           -0.24135657419086       -1.38429867048757        0.81975314156301
H           -1.61404287858095       -2.23105691952760        1.10060652760173
H           -2.50247266831675       -0.25081990715044        1.94865973745756
C           -1.87305853085351       -0.69639514998217       -0.22680392265054
H           -1.26626582400794        0.17116066567530       -0.51629009037978
C           -2.01385861400946       -1.63203809460324       -1.42690388134849
C           -3.22305942707116       -0.15218081646036        0.22260805273198
H           -2.63226484750797       -2.48928252617957       -1.16649355935062
H           -2.48007234043806       -1.10139210410986       -2.25054601842919
H           -1.03573538380385       -1.98817977721509       -1.74425070650487
O           -3.33591788171477        0.06093083954607        1.54004925954254
N           -4.10910423185318        0.09813391822582       -0.63679311323603
H           -5.08903645569519       -1.22490031133999       -1.65921709091700
C           -5.41575729404239        0.59175111399520       -0.24749929086277
H           -5.46453306615110        0.85421330780788        0.81408325924170
C           -5.72263890322543        1.82586720554179       -1.11520935897845
C           -6.40561130412918       -0.51875710561067       -0.52646311430450
H           -4.94101063582999        2.56350417180054       -0.91884219157545
H           -5.63788616751112        1.52684257524077       -2.16281744751137
C           -7.09376891488010        2.46322263896036       -0.87760980914498
O           -5.99827526292396       -1.46054858172810       -1.39234759466535
H           -7.86550781768983        1.70855163670460       -1.05385025488626
C           -7.23885993679777        2.98471650717439        0.54966259037202
C           -7.29938311002998        3.60386832662180       -1.87349627572694
H           -6.46219466876217        3.71533877711992        0.76746836221347
H           -8.20629559409270        3.46435094326276        0.67515182192461
H           -7.16679008407012        2.17587056714882        1.27115023754794
H           -7.22130004496635        3.24375516948299       -2.89675966925235
H           -8.28348175386034        4.04628013928020       -1.74161712478632
H           -6.55129312582586        4.37991768933922       -1.72410346756230
N           -7.54754979850988       -0.48578936018694        0.00519310149974
H           -8.87034530578081        0.47321904474574        0.81460524675316
C           -8.54381900571014       -1.49530513820072       -0.27782505148882
H           -8.56694468120262       -1.75974885610386       -1.34308596350461
C           -8.30648734719684       -2.76856547708453        0.54102756571991
C           -9.90892853680621       -0.91127805103597        0.11471276341005
H           -8.22912659048570       -2.52059353579927        1.59778624462292
H           -9.13964151738994       -3.45005026579492        0.39426474338505
H           -7.38502574465740       -3.24816114001058        0.22019454633868
O           -9.82732562612897        0.24170901491679        0.76721052826154
O          -10.94806724062886       -1.45778750207760       -0.13237006202600
