42
 energy: -62.486133510642 gnorm: 0.000479375637 xtb: 6.7.1 (edcfbbe)
N           -2.86875821498017       -1.41213554707224        2.03332773853157
H           -1.93462785393527       -1.76136696919201        2.21032076972808
H           -3.50294892729804       -2.20781732352965        2.06204391092140
H           -4.13303864294010       -0.07541634639806        2.56697558575516
C           -2.94441515407041       -0.76990832280754        0.72226708726396
H           -2.12566465638531       -0.03946029609766        0.66882717786757
C           -2.84681802245027       -1.72375032503868       -0.46645585616461
C           -4.24427780118987        0.01727289729383        0.69818783428174
H           -3.58669639451355       -2.51469657540744       -0.37147655984539
H           -3.04121784347916       -1.17714541820047       -1.38234729140016
H           -1.85637043789991       -2.17183972651730       -0.51353968726970
O           -4.71915104541945        0.35487034760645        1.91039393843342
N           -4.79545431524827        0.30779137906708       -0.39579213087174
H           -8.44947347961689        1.36819415815525       -0.64175864378311
C           -6.05571494953736        1.00898235959481       -0.39153249196796
H           -6.11305312013947        1.71489053675713        0.45373026829021
C           -6.22178122472191        1.76102773694380       -1.72717080002933
C           -7.17558967906105        0.01200880625312       -0.16818328862738
H           -5.29536283745916        1.62290112317729       -2.28570024921299
H           -7.01933125610231        1.30338779216949       -2.31883985829148
C           -6.49424818972046        3.26190327475532       -1.56612036477661
O           -8.43912900520571        0.44269342007542       -0.36567062966089
H           -7.29903353460082        3.41007969737415       -0.83263296181263
C           -5.24773890410646        3.98510609874217       -1.06260656433120
C           -6.94643178843742        3.85759090894158       -2.89801673255527
H           -4.44912397814725        3.90695665212966       -1.79651978456597
H           -5.45943471061816        5.03841996927672       -0.89316873625325
H           -4.89414839664546        3.55212175231150       -0.13030120648930
H           -7.86370145488101        3.38678544180839       -3.24615926768633
H           -7.12841688352122        4.92472425080029       -2.79542823483386
H           -6.17889796172028        3.71183852470942       -3.65439153982750
N           -6.88930150274463       -1.14130067233063        0.23652541372488
H           -5.64139416569817       -2.13821048515102        0.86327743319062
C           -7.84049580479473       -2.17223447172258        0.56098394942368
H           -8.65258872726656       -1.79628905883518        1.19617549211719
C           -8.44393236907593       -2.82114058253337       -0.68815349606630
C           -7.04919561131882       -3.23765511985075        1.34253509384451
H           -7.64953485988001       -3.15258104819539       -1.35387879528226
H           -9.04321747596058       -3.67775702217545       -0.39280625115107
H           -9.06993158206850       -2.10395284720097       -1.21293840875449
O           -5.74103033403448       -2.99814459211111        1.35720801176161
O           -7.55551815756592       -4.18876999067241        1.86774487057989
