42
 energy: -62.486133508043 gnorm: 0.000480568420 xtb: 6.7.1 (edcfbbe)
N           -0.86482354883686       -0.33629951114950        0.32349899999392
H            0.02671413891893       -0.62760610832754       -0.05837838342199
H           -0.94975741686099       -0.74818804299226        1.24884311269016
H           -1.93179985510476        1.24534307613504        0.57949674120362
C           -1.96963945544881       -0.78658539653399       -0.52119393666065
H           -1.71044962056278       -0.52960974768023       -1.55711682954326
C           -2.27057855784531       -2.28121352845969       -0.43151165773187
C           -3.18450128739702        0.05559905356995       -0.15276126477435
H           -2.52098532599807       -2.55071367698300        0.59231521727539
H           -3.11803767712855       -2.52543747560069       -1.06268139948332
H           -1.40682294332984       -2.86122362847575       -0.75048417484195
O           -2.90046178320716        1.22464518820888        0.43938131740759
N           -4.33701941172477       -0.38007997385100       -0.40491648838689
H           -5.51290494081422       -0.98038978214716       -2.02146189478840
C           -5.54282147405777        0.37939411916495       -0.14321478103955
H           -5.65665771623143        0.56115815384294        0.92963325762018
C           -5.57409527717151        1.72115976125843       -0.90021814791047
C           -6.67425458358096       -0.49451691742668       -0.63429387011705
H           -4.76031422151792        2.34320206309891       -0.52557014068351
H           -5.38405945118836        1.52039356248128       -1.95931765813738
C           -6.89791650224835        2.48067360570030       -0.76500132945473
O           -6.45443035836653       -1.09762990134075       -1.81347599397261
H           -7.71450774119284        1.82965390900882       -1.09474653443164
C           -7.16468464687003        2.89884274960813        0.67822958536992
C           -6.86607770343897        3.71193997442460       -1.66946743536416
H           -6.34189106274864        3.50284337369249        1.05540876259427
H           -8.07738467692989        3.48684028274148        0.73401327075769
H           -7.28503996536789        2.03099176011140        1.32029344835522
H           -6.70576635748541        3.42733599494162       -2.70713666915375
H           -7.80703617963080        4.25260852914459       -1.60607980147583
H           -6.06372791594240        4.38255248103289       -1.36853579857904
N           -7.70431126642068       -0.66074302452461        0.07137625849012
H           -8.83630170852981        0.00210681381779        1.31995546810161
C           -8.79845980112522       -1.49673949232336       -0.37483467730002
H           -8.98337973606339       -1.39414988329234       -1.45153611272767
C           -8.53368671173648       -2.97211810174620       -0.05671450475681
C          -10.05570160459266       -1.05021302449808        0.38535353923162
H           -8.30665935684602       -3.08786279101134        1.00104381387781
H           -9.41709586862463       -3.55604737065909       -0.29866092995664
H           -7.68989373897878       -3.32982068038226       -0.64131766427502
O           -9.80554028829320       -0.17689322911367        1.35378875094135
O          -11.15342765917389       -1.46522900827829        0.13693154658036
