42
 energy: -62.486143125438 gnorm: 0.000732950130 xtb: 6.7.1 (edcfbbe)
N           -1.13564427404278       -0.21287290841838       -1.63406471981716
H           -0.43773031433424       -0.78392738353865       -2.09551627747412
H           -0.66996306232256        0.29882433619513       -0.88975021331233
H           -2.58617837215351        0.97511836871035       -2.09831788146550
C           -2.20353367811243       -1.03957278614659       -1.07487854124058
H           -2.52919084505967       -1.72566815630764       -1.86851423508831
C           -1.80263564046804       -1.85088170894544        0.15471680582128
C           -3.38681541450327       -0.11395868841950       -0.79870929439386
H           -1.51131753204794       -1.18598553901418        0.96516006863850
H           -2.64178555157149       -2.45217735860879        0.48744891337885
H           -0.96819568188982       -2.50797835517968       -0.08373316353258
O           -3.41249008664680        0.97928748231731       -1.57389352715769
N           -4.21138927373548       -0.44934055381037        0.08615409988489
H           -5.38449209165928       -1.99352863505129        1.19932278069236
C           -5.44258028077373        0.22510155755620        0.45051631743592
H           -5.38254732697608        0.36242605428949        1.54087123198063
C           -5.77003269815926        1.56125711703705       -0.21661992953731
C           -6.48984936416437       -0.84100534063327        0.18753519167839
H           -4.90538863040567        2.21943875477018       -0.12320454527613
H           -5.93969625058386        1.38021803980198       -1.27781174446798
C           -6.99500222273823        2.25603748771319        0.39202972088854
O           -6.27560032063966       -2.01144512412533        0.82043192274251
H           -7.78357374384332        1.51218984388934        0.53744241516931
C           -6.66416555157985        2.89085324488914        1.74172854189735
C           -7.50823393670784        3.32647849981207       -0.56950727585789
H           -5.87973682077305        3.63656007329597        1.62773023748807
H           -7.54339073963112        3.38165605241829        2.15296674763512
H           -6.32928454913964        2.14736792317326        2.46113316738127
H           -7.80775475336116        2.88556771185194       -1.51706826845717
H           -8.36837398730035        3.83908785031770       -0.14497908252663
H           -6.73166988373319        4.06356312380484       -0.76321360427562
N           -7.41987262322467       -0.64749128842545       -0.63541448672831
H           -8.18185970432967        0.37225830448376       -1.91444873172851
C           -8.39112166731782       -1.66715618975944       -0.95642729283488
H           -7.91582744245118       -2.63878476123486       -1.14234766239194
C           -9.43152127701192       -1.83194872966614        0.15694228282156
C           -9.11386204262729       -1.20949372338715       -2.23272351604437
H           -9.89055369947907       -0.87114890237239        0.38234744790312
H          -10.20106272058676       -2.52526745572750       -0.17038157446495
H           -8.95385430790431       -2.21728670125408        1.05425028398360
O           -8.84399078820780        0.04559621944491       -2.56965491525201
O           -9.86442211386083       -1.91399355828113       -2.84861259543303
