42
 energy: -62.486133499634 gnorm: 0.000481589409 xtb: 6.7.1 (edcfbbe)
N           -2.83853495843532       -1.75650436818775        1.87966302619384
H           -1.93499922276969       -2.19376510487202        2.01161104748066
H           -3.54569407371809       -2.48520149534826        1.94982912815757
H           -3.98459988931167       -0.37605732979052        2.47470220508089
C           -2.92243367334219       -1.11271009336308        0.57036579296448
H           -2.02537869821172       -0.49278414277145        0.44723201135298
C           -3.03740005557854       -2.08051687357595       -0.60622048378432
C           -4.12312166900296       -0.18063758387313        0.61511781250253
H           -3.89686210410143       -2.73196701489582       -0.46437077591149
H           -3.17898270650976       -1.51808438262674       -1.52239271224298
H           -2.14024327366063       -2.69070634657779       -0.68787467198007
O           -4.55631637977570        0.12179219143500        1.85260778141372
N           -4.64288444230125        0.23457422344280       -0.45279370278698
H           -8.03614371933975        1.23143146662900       -1.55004448057203
C           -5.84470683962445        1.03781091492306       -0.39799435445184
H           -5.90547959555969        1.59074675518011        0.55243550336830
C           -5.84125609195246        2.02075749341355       -1.57655748105605
C           -7.01975035419060        0.06957896518299       -0.41021587867485
H           -4.79888654741781        2.27178141644774       -1.77940805305026
H           -6.21369560265279        1.51730315438938       -2.47346201691708
C           -6.62290639733680        3.31746793162916       -1.31014537308253
O           -8.13569053202111        0.38719779689263       -1.09093879704376
H           -7.55464790982833        3.08973013771248       -0.77525142260114
C           -5.80627308182985        4.26602193830163       -0.43446644244756
C           -6.97796565032044        4.00195603754771       -2.62954509055953
H           -4.90035297463789        4.57076754747596       -0.95368161368517
H           -6.38293165850335        5.15708018682544       -0.19717877636426
H           -5.51998345150600        3.78732703695308        0.49876095374021
H           -7.60687375211154        3.36601329775556       -3.25021170507641
H           -7.51266835469481        4.93055159417169       -2.44421247874842
H           -6.07325768407439        4.23406883354693       -3.18676674841028
N           -6.88678894053311       -0.99145723240150        0.25073851796607
H           -5.87006533811064       -1.82696206081814        1.37006325929032
C           -7.84976863116628       -2.05586307850885        0.35800275520609
H           -8.77939595710374       -1.70340202253369        0.82451618026088
C           -8.18479549933935       -2.71728139970781       -0.98105457287846
C           -7.21282396328509       -3.10175500831856        1.29503874763031
H           -7.26613918726647       -2.99305136350237       -1.49536693278222
H           -8.77167422314320       -3.61271873702377       -0.79632854067976
H           -8.75026180193114       -2.03362243160026       -1.60813471065009
O           -6.01973987547258       -2.73496192489087        1.75105445592932
O           -7.73381652704177       -4.14597482777873        1.57181397586684
