42
 energy: -62.486133519646 gnorm: 0.000479165321 xtb: 6.7.1 (edcfbbe)
N           -0.70451907854979       -0.06628883174340       -0.17757786542315
H            0.14314719804741       -0.33833368783349       -0.66031391786944
H           -0.62263772711917       -0.37855515311762        0.78612268676720
H           -1.83429020502947        1.47592719418604        0.02576277306651
C           -1.88098610228999       -0.67231474178629       -0.79821282396322
H           -1.79784099356379       -0.50315779475655       -1.88020449775387
C           -2.03656383356044       -2.16947272899674       -0.53466046156682
C           -3.09041581338541        0.12876513875882       -0.32739605009885
H           -2.22563675951179       -2.34887070005867        0.52141330439470
H           -2.86677246551826       -2.56896043171087       -1.10747433043046
H           -1.12876313493528       -2.69480053116931       -0.82580969686541
O           -2.80864963638057        1.38002435341214        0.05805292171116
N           -4.22155479052026       -0.41891275416862       -0.31837783357720
H           -5.10908012930250       -1.89132598907734       -0.75899595767234
C           -5.47630471309139        0.22244996452225        0.01849409126947
H           -5.51451907446574        0.41761451577377        1.09640777048110
C           -5.64996355238502        1.55070706163087       -0.74467968093177
C           -6.54889207006101       -0.80340130670365       -0.33148023813621
H           -4.83346708023641        2.20481319048340       -0.43547542034437
H           -5.52371944293608        1.33765239425082       -1.80981766015979
C           -6.96990811796532        2.29848231192647       -0.54303772060220
O           -6.08882321703148       -1.98597371592129       -0.75234942264112
H           -7.77334254842614        1.71691080684566       -0.99929980315491
C           -7.28740683289817        2.51418601633306        0.93376224550103
C           -6.89020600365383        3.64512839843076       -1.26179520581333
H           -6.47274218381241        3.04457352038578        1.42338855748279
H           -8.19290349631106        3.10694818629616        1.03828599480661
H           -7.44117503716330        1.56490148144558        1.43955991985311
H           -6.65867270695585        3.50785245314557       -2.31548598591868
H           -7.84045862525053        4.16765172254569       -1.18667513477069
H           -6.11787805140458        4.27094174859634       -0.81874830551896
N           -7.77490592506034       -0.51638326405801       -0.24152301483283
H           -9.17910117206987        0.62381076197469        0.14988388353246
C           -8.78630769745783       -1.49212660899837       -0.59117400209799
H           -8.57596485642635       -1.96283045773041       -1.55964510161883
C           -8.91825527174946       -2.59119271588986        0.47080272835971
C          -10.12944011497486       -0.75705951195127       -0.67364695433998
H           -9.09427878833382       -2.14460103910414        1.44773428846322
H           -9.75496085071008       -3.23645434886615        0.21826495135241
H           -8.00551511239101       -3.17997438635297        0.50794657162663
O          -10.10770225423959        0.45356235399892       -0.12776703283764
O          -11.11481299099878       -1.24393875150093       -1.15532355087098
