42
 energy: -62.486133509092 gnorm: 0.000480383259 xtb: 6.7.1 (edcfbbe)
N           -0.74696988406486       -0.24031633604430       -0.31315897562318
H            0.05623400509959       -0.34958449399257       -0.91984063782922
H           -0.60135499428396       -0.83781259449293        0.49610559667576
H           -1.80873366022650        1.15823731879800        0.46232368976963
C           -1.98013341813304       -0.62412197018327       -1.00042211240351
H           -1.94777062074459       -0.18514394966718       -2.00530410839268
C           -2.20521897022603       -2.12975540499394       -1.11833715255384
C           -3.13341933347648        0.05334220246449       -0.27432282120188
H           -2.18694738475632       -2.59091142282265       -0.13226279622796
H           -3.17685503199818       -2.31140529779811       -1.56501680341860
H           -1.43223988424626       -2.58469620129757       -1.73411233609954
O           -2.78531951651233        1.09750925587584        0.49893533216006
N           -4.30606926124269       -0.36744749451943       -0.44257554207703
H           -5.48449011417343       -1.61888698799085        1.64539450814842
C           -5.43115825003528        0.29285671446472        0.19483412804905
H           -5.16599006914113        0.61473354669759        1.21476485430311
C           -5.85187272611818        1.51511525144943       -0.62979144497449
C           -6.51095637975077       -0.76188235551250        0.27323441221333
H           -4.98699162929584        2.17795343397706       -0.70224949515070
H           -6.09630119628345        1.16337002201664       -1.63274089396163
C           -7.03806647599284        2.29221316043021       -0.05078719033907
O           -6.34465301672977       -1.71401315960796        1.21885674469553
H           -7.84879652755835        1.58734501324597        0.15441962706386
C           -6.66559847959577        3.00615607466203        1.24699127450948
C           -7.52843662036244        3.30759757351647       -1.08159498376999
H           -5.81940373802711        3.67095439861586        1.08582093325348
H           -7.50437427536251        3.59951366898173        1.60386341512512
H           -6.40216678753192        2.29758948749162        2.02817285209483
H           -7.83876655903652        2.80902304025554       -1.99650033803063
H           -8.37662574379268        3.86562284085549       -0.69219319892239
H           -6.73706980125039        4.01364480941911       -1.32465639355247
N           -7.46227874905995       -0.77103715584337       -0.54741885125392
H           -8.17857181622580       -0.16020179990167       -2.07847581016910
C           -8.47836852322685       -1.79644016754890       -0.54917781038142
H           -8.04683095089318       -2.80003823650716       -0.44707961454024
C           -9.50344722874891       -1.58245825284313        0.57010302715748
C           -9.20795394375352       -1.70037955588844       -1.89889219341069
H           -9.91462454818052       -0.57647037263429        0.51051926532566
H          -10.30966069892398       -2.30213515749561        0.46014222007737
H           -9.02818814544185       -1.71553709448260        1.53867437437862
O           -8.87594803229287       -0.62459149107314       -2.60115690265302
O          -10.01380227551175       -2.50953669450192       -2.26615276002327
