42
 energy: -62.486133492952 gnorm: 0.000482371769 xtb: 6.7.1 (edcfbbe)
N           -0.82932540614043       -0.40455034357548        0.44474680000862
H            0.11311294873668       -0.50926383653352        0.08926754514094
H           -0.97551747145852       -1.12972223171131        1.14167543614686
H           -2.01754672521257        0.99047767155450        1.09816994589269
C           -1.81355547245954       -0.53898799408358       -0.62752984842790
H           -1.48042564549507        0.10165128714065       -1.45496381928690
C           -2.00824246100053       -1.96348978853161       -1.14460023099079
C           -3.11149799163145        0.06193519640088       -0.11012155849339
H           -2.38068481408600       -2.60670504920701       -0.34968908040602
H           -2.72502222796327       -1.96483707402035       -1.95907488932297
H           -1.06316449055567       -2.36335842456723       -1.50691640668830
O           -2.96519678865139        0.97857682859729        0.85595726654181
N           -4.21312958207300       -0.29166710449638       -0.60687967236920
H           -5.10302403038164       -1.84699262469165       -0.94448036611083
C           -5.46396787793955        0.28077348073782       -0.14623614621452
H           -5.42346985907208        0.51584698440771        0.92501466337286
C           -5.69466241954293        1.58230512696797       -0.93804736368547
C           -6.52464683990236       -0.78174850366507       -0.37391071502623
H           -4.85796945373099        2.24203956242633       -0.69322096187742
H           -5.62682894538939        1.33789739847656       -2.00106144435420
C           -7.00484047811336        2.32846722485830       -0.68070765466420
O           -6.06246270560510       -1.97142917559860       -0.78243938017724
H           -7.82838911963123        1.72083123978564       -1.06137107603527
C           -7.22937111644103        2.59740058961026        0.80429310237093
C           -6.98525686614344        3.64579504130891       -1.45555868575543
H           -6.38808298565769        3.14710289014018        1.22211501966763
H           -8.12983235003054        3.19048064630896        0.94459566750294
H           -7.34483961762151        1.66653094388228        1.35258120738131
H           -6.82243879249588        3.46788516864707       -2.51601087421487
H           -7.93282381919941        4.16524761006134       -1.33807422013531
H           -6.19094492011178        4.29352843506039       -1.08952279045078
N           -7.74986330325203       -0.51713610573375       -0.22817828522018
H           -9.14882638763276        0.61681453443173        0.18539101092432
C           -8.75819079225604       -1.52874506334994       -0.46390938837618
H           -8.59671984048642       -2.04559366416330       -1.41823367073828
C           -8.80045209904278       -2.57245344352007        0.65927897008592
C          -10.11972418604006       -0.82355096047020       -0.50017960464887
H           -8.92248712362397       -2.07817913959808        1.62139911285183
H           -9.63873326308995       -3.24358074006785        0.49499194278002
H           -7.87587816429719       -3.14373123410477        0.66738695204464
O          -10.08916677264195        0.41628664141574       -0.02517334644270
O          -11.12210100289692       -1.35417786547307       -0.89183815980750
