42
 energy: -62.486133515109 gnorm: 0.000479310639 xtb: 6.7.1 (edcfbbe)
N           -1.46267059703278       -1.56907323696379        1.02741030215731
H           -0.46574316675936       -1.73442381755623        0.96085267822515
H           -1.92448033280034       -2.47462956884205        1.02852452816569
H           -2.73701199608589       -0.52727475516326        2.05862162787711
C           -1.93928679390594       -0.76868274445340       -0.09818929676377
H           -1.26386915209097        0.09170388133842       -0.19375770866473
C           -1.99827296021068       -1.50887309001058       -1.43360847712745
C           -3.29939839786230       -0.21176215375408        0.29792486884338
H           -2.67197073478746       -2.36088277206086       -1.36320705566506
H           -2.36271537240100       -0.83832881508782       -2.20477291098281
H           -1.00832788498274       -1.86510642004487       -1.71171007477120
O           -3.51370049885295       -0.12868492221727        1.61750060944628
N           -4.10474830378344        0.15881989684938       -0.59655462440910
H           -5.15659561483180       -1.01952583107435       -1.83377639800816
C           -5.41796637958905        0.67121092033405       -0.25446267984442
H           -5.50089798617358        0.94054313812882        0.80296164710298
C           -5.69452628412285        1.89367177693669       -1.14636093738417
C           -6.40598178516245       -0.43209866204803       -0.55836862791890
H           -4.92230934537392        2.63709191472440       -0.93721134226837
H           -5.57814398914355        1.58230776879094       -2.18743433584057
C           -7.07693488159806        2.52426981803299       -0.95557727365581
O           -6.04924019671058       -1.27712548982888       -1.54024137892863
H           -7.83793996162796        1.75010721817510       -1.09385680439744
C           -7.24062883920975        3.12133511441384        0.43968140896735
C           -7.28975552812369        3.60614058227968       -2.01366164926784
H           -6.48678951281884        3.88634608416350        0.61529885974914
H           -8.22229627535453        3.57798405115885        0.53743176881014
H           -7.14655871280445        2.35782765664595        1.20648187878329
H           -7.21136779402026        3.19002362634634       -3.01551152015428
H           -8.27548492143038        4.05147773571540       -1.90551101529182
H           -6.54472156361068        4.39233439553708       -1.90875959175613
N           -7.49146031557789       -0.49342616852509        0.07694337925455
H           -8.75856472732268        0.36708633575143        1.05079935377379
C           -8.48608179048187       -1.50334769024971       -0.20968592158885
H           -8.59881916693510       -1.67189487396165       -1.28870404844377
C           -8.14906349060170       -2.83713382736154        0.46464585237020
C           -9.82329958781953       -0.99590574208098        0.35136669542641
H           -7.97554795063531       -2.68187328295336        1.52762040091320
H           -8.98126043234343       -3.52345263759069        0.33514523988868
H           -7.25462827404382       -3.26334660660821        0.01697190287766
O           -9.71106691970496        0.11257494176824        1.07231493512875
O          -10.86606284094055       -1.55802956658062        0.16136076368759
