42
 energy: -62.486133514856 gnorm: 0.000479210885 xtb: 6.7.1 (edcfbbe)
N           -1.57988710358234       -1.80663917505488        0.96653653992041
H           -1.42562410897911       -1.36271691650411        1.86602941308148
H           -0.71430959991434       -2.25399007587427        0.68916913808691
H           -3.47591448014113       -2.20682165711154        1.08749849042776
C           -1.99984497897057       -0.82295537864259       -0.02808677292783
H           -1.45515925664819        0.12990521332692        0.02526890324337
C           -1.84277654905999       -1.40850836601213       -1.43345605533716
C           -3.47472334348469       -0.54598394895258        0.21135211930831
H           -2.40790219849901       -2.33469170480705       -1.52093421612596
H           -2.20122936367810       -0.69496204776110       -2.16981161117664
H           -0.79568138353401       -1.62167678055989       -1.63849012276181
O           -4.13940773264548       -1.53197252693954        0.83722911393902
N           -3.96914328622574        0.54194229374636       -0.18513410447207
H           -4.97900307107273       -0.93614672794643       -1.66281171015611
C           -5.38323137680935        0.82979115952465       -0.06677602390952
H           -5.59779003689940        1.13704552854946        0.96190761204865
C           -5.68258404579355        1.99670258447799       -1.02695301113529
C           -6.27670151018001       -0.34453629149953       -0.39479407851665
H           -4.95011242870355        2.77673032291224       -0.81420810233856
H           -5.50502483968978        1.65083485443393       -2.04874292813290
C           -7.09751902299355        2.57325649271733       -0.93125541106408
O           -5.85859897995893       -1.19400969215904       -1.35428241020819
H           -7.81837644384438        1.76394668474408       -1.08316064518223
C           -7.36405148456380        3.20982016666793        0.43015582645864
C           -7.29553574223980        3.61005951517952       -2.03645340871943
H           -6.64612132382074        4.00416057213476        0.62466046532588
H           -8.36357789251602        3.63694623930695        0.45172281839176
H           -7.29625156523323        2.47597027741394        1.22819295722661
H           -7.13884309826554        3.16686309850211       -3.01728535549134
H           -8.30506111896590        4.01167881031457       -2.00146391036528
H           -6.59400307970501        4.43294313188665       -1.91516547803163
N           -7.42515587599400       -0.39719888277334        0.11997448269116
H           -8.80045756645621        0.43901372320897        0.96549933817410
C           -8.36362799127945       -1.43880094995853       -0.23153929181652
H           -8.35797043138849       -1.65176761861628       -1.30857440196902
C           -8.06576577702989       -2.73420620801259        0.53099196284685
C           -9.76145489097122       -0.94682617567309        0.16864502261364
H           -8.03783205895300       -2.53556742899251        1.60042228079913
H           -8.84376887112419       -3.46296718270511        0.32202056794126
H           -7.10166879106916       -3.12936062429543        0.22108903718587
O           -9.74521431572597        0.16760543563492        0.89047051347079
O          -10.76928423735373       -1.52493558684730       -0.13052230162860
