42
 energy: -62.486133513756 gnorm: 0.000479430491 xtb: 6.7.1 (edcfbbe)
N           -1.22638647125398       -0.79102455001586       -1.27212861339049
H           -0.49551569480882       -1.48116121402818       -1.39415579172299
H           -0.79356896560479        0.04876128741248       -0.89667486974204
H           -2.66697694683376       -0.05263296764126       -2.24777222294934
C           -2.25492371013919       -1.27215918340228       -0.34930181089461
H           -2.49620597661892       -2.30371719176818       -0.63629329361770
C           -1.85918661325122       -1.23869913692226        1.12407716995484
C           -3.50753736158686       -0.44530055525542       -0.60639757533604
H           -1.58437835495535       -0.22677353429554        1.41517031943412
H           -2.70402196456852       -1.55037919710306        1.72839990381084
H           -1.01651051864856       -1.90205437656792        1.30752026196915
O           -3.54452332453936        0.11727673711433       -1.84407109906679
N           -4.40917876452154       -0.40210838810146        0.26188083427915
H           -5.49305065822605       -0.38055554994428       -2.11517011002945
C           -5.63073441847004        0.36860794997045        0.16912763225739
H           -5.98636022379312        0.44071789507549        1.20194828465155
C           -5.49046618092826        1.78012251828458       -0.42182332037131
C           -6.65537376866391       -0.43797103256276       -0.59633572936929
H           -4.71486042225879        2.30475990209771        0.14151740444697
H           -5.15724165978574        1.71686261194487       -1.45978070599673
C           -6.79526807572670        2.58420801640032       -0.37449686784961
O           -6.35545782959137       -0.75136037847366       -1.86980965841632
H           -7.59219583086055        1.98456405309772       -0.82814905543256
C           -7.20477502969663        2.92946249159780        1.05470991398615
C           -6.62755035191473        3.86468144461818       -1.19187925001415
H           -6.41442293944530        3.48944628787871        1.55074724450124
H           -8.10422953764986        3.54018517163987        1.04690704257680
H           -7.41362734151375        2.03371793108216        1.63249762782304
H           -6.37621717190505        3.63615826656942       -2.22541527313396
H           -7.54826624607347        4.44261225414593       -1.18539171787482
H           -5.83368898838505        4.47982890358712       -0.77278706382171
N           -7.72487563047409       -0.77922830891771       -0.02555910097376
H           -8.96409339981057       -0.47324541374039        1.26961438080190
C           -8.74303624192196       -1.53757322514537       -0.71798146226884
H           -8.85128859257219       -1.22503336868026       -1.76450728128006
C           -8.43951042684202       -3.03922473947898       -0.67803664855201
C          -10.07055773052535       -1.29207023666725        0.01334775240324
H           -8.28633685055564       -3.35862882696606        0.35075485226167
H           -9.27667953025156       -3.58641940366728       -1.10219657257402
H           -7.54014842941664       -3.24971713455935       -1.25147616490797
O           -9.92559077477528       -0.66856014156458        1.17671459324265
O          -11.13137231539553       -1.64840140846119       -0.41840889985156
