42
 energy: -62.486133507763 gnorm: 0.000481208631 xtb: 6.7.1 (edcfbbe)
N           -1.88617801988403       -1.95148908969224        1.08602689024164
H           -0.90172580178061       -2.18354649919587        1.13961027462637
H           -2.38934952434176       -2.80360124110660        0.85197267872703
H           -3.28108818591222       -1.04755122257569        2.07563732561213
C           -2.13000112719441       -0.93277183283678        0.06755352327064
H           -1.39199252929925       -0.13492055714414        0.21998525475820
C           -2.03706973169167       -1.43436549660087       -1.37307573816666
C           -3.49582437996893       -0.32800111513813        0.35667897866077
H           -2.75872440062016       -2.23179546689019       -1.53921511407586
H           -2.25557541477290       -0.61905942004587       -2.05390315453981
H           -1.03852722472709       -1.81482451425011       -1.57864459610512
O           -3.94649348304227       -0.50590048299446        1.60537893424778
N           -4.09871238221940        0.31192177380428       -0.54561128264457
H           -5.33324493673996       -0.64106128278576       -2.08277336466736
C           -5.41932543936856        0.86139853728864       -0.28652678998992
H           -5.53651905339019        1.16330634748645        0.75911018199258
C           -5.64317591882818        2.05238171164830       -1.22772197230640
C           -6.40741293900355       -0.24211122484692       -0.57835874795993
H           -4.90142471746354        2.81586098846282       -0.98630655988577
H           -5.44947915049263        1.72180366025911       -2.25153860945232
C           -7.05009511027559        2.65376243922453       -1.14752910237643
O           -6.16556586829622       -0.95477098495248       -1.69580555505397
H           -7.78172005051863        1.85970768107408       -1.33238829996032
C           -7.33036271628695        3.25685905745885        0.22631967780819
C           -7.20869898139721        3.72062769512497       -2.22980045964088
H           -6.58536827837893        4.01244860485725        0.46757573887936
H           -8.31083726720950        3.72667160032718        0.23506347704562
H           -7.31716737831733        2.49293708310620        0.99832033232491
H           -7.04370216941199        3.29838738709808       -3.21857514006965
H           -8.21004668736276        4.14278100753073       -2.20206287367451
H           -6.49274512895224        4.52536542313545       -2.07590311530491
N           -7.36859352680853       -0.45907898374916        0.20380066975230
H           -8.47920173239106        0.13030388405253        1.50709753351652
C           -8.32899364224811       -1.51134778777332       -0.04603013207895
H           -8.62324710743889       -1.55529925843864       -1.10248552867179
C           -7.78260299567028       -2.88050176200297        0.37228454477737
C           -9.57280264917997       -1.20204769473183        0.80062476311946
H           -7.42922432062155       -2.83861618653594        1.40064103822291
H           -8.57332094376373       -3.62140346194342        0.29518306967227
H           -6.95697339532483       -3.16303628153036       -0.27636543669891
O           -9.39549116804193       -0.20301536961737        1.65556533423174
O          -10.59758577814305       -1.81843347580412        0.70512640352328
