42
 energy: -62.486133505333 gnorm: 0.000481127675 xtb: 6.7.1 (edcfbbe)
N           -1.30106156379197       -0.62634214257957        0.76603601909852
H           -0.40202430065575       -1.00896670320299        0.49956610503393
H           -1.55331479833063       -1.03616167499367        1.66152421208032
H           -2.22679513864693        1.04917167336370        0.93024216995446
C           -2.32322796596798       -0.95044820915301       -0.22879104193953
H           -1.89771540420251       -0.73218462363262       -1.21694596872201
C           -2.80959689884853       -2.39740288093363       -0.19652831796167
C           -3.47508807184236        0.02269216432811       -0.02283198990886
H           -3.19837586341760       -2.63774491726388        0.79083125783379
H           -3.61115857596508       -2.52320827372703       -0.91600301746682
H           -1.99591381803539       -3.07964037415995       -0.43456322733199
O           -3.15761389715040        1.14632371788656        0.64298986912214
N           -4.61394377643852       -0.26043702599659       -0.47271200984071
H           -6.77837917581333        0.30246414274165       -2.50047316221129
C           -5.73069398535339        0.65360161400040       -0.31202988913687
H           -5.81141459747654        0.94264010944002        0.74333083242881
C           -5.57011535209554        1.91814617436063       -1.16630659039913
C           -6.95131063499793       -0.17312293134605       -0.65769578962916
H           -4.70173245596617        2.45823434982881       -0.78478357204884
H           -5.33559082908291        1.63505867292499       -2.19922385122552
C           -6.78864598194758        2.85008289947807       -1.14195482413761
O           -7.35638227887396       -0.22982237345140       -1.93984864503967
H           -7.67485283136386        2.30527419424887       -1.48706090568101
C           -7.06888377540267        3.36705082714275        0.26722034587788
C           -6.54629147428283        4.02187777411578       -2.09277764780778
H           -6.17882758453570        3.83208143758971        0.68549271062385
H           -7.86430258309758        4.10826051917626        0.24155357983212
H           -7.38282862358587        2.56045274651392        0.92454783788811
H           -6.36096645572004        3.67167622516396       -3.10638974282533
H           -7.41195468228491        4.67930007254719       -2.11337266946391
H           -5.68442689358973        4.60019565119630       -1.76695597647524
N           -7.47765594909267       -0.86134851195931        0.25631448847598
H           -7.70809448142111       -1.21142176339482        2.00965849896072
C           -8.58205879698844       -1.75902672129824        0.00173153341256
H           -9.34553035788452       -1.29995351325904       -0.63874431313260
C           -8.10786482316989       -3.06347466897092       -0.64895056228886
C           -9.21027658470861       -2.09872700650100        1.36123500712859
H           -7.31675156421669       -3.50845699331692       -0.04892506045434
H           -8.94181882485812       -3.75664111604178       -0.71412852883625
H           -7.72402590844007       -2.86098745133916       -1.64529732620742
O           -8.48194764325830       -1.68931797713712        2.39330643893865
O          -10.24673604824621       -2.69177294141864        1.47664879415911
