42
 energy: -62.486123803391 gnorm: 0.000708849467 xtb: 6.7.1 (edcfbbe)
N           -1.34051402320227       -2.04088134838922        0.05236562624334
H           -1.46919034742319       -2.50237484923520        0.94671943609567
H           -0.34904696131738       -2.03228879216800       -0.15486317613578
H           -2.90280941255653       -2.45182065284148       -0.89655946473709
C           -1.87850126660187       -0.68100412876448        0.08513873953093
H           -1.72293133471331       -0.16539502967452        1.04144135011025
C           -1.25907834686337        0.15164394155817       -1.03721066506072
C           -3.37952210876044       -0.78371059329560       -0.16324855409318
H           -1.39986796301161       -0.34447961574254       -1.99523541815297
H           -1.73560720999205        1.12646972104699       -1.06937933906633
H           -0.19315223127022        0.28626559242967       -0.86584602066724
O           -3.72309449720461       -1.91223973717676       -0.84165878673964
N           -4.10736492201533        0.15594830872950        0.21099634125560
H           -5.39921134432415       -1.71515327491981       -1.24704499110406
C           -5.51090357447517        0.43424771088949        0.10972220070708
H           -5.77188798796027        0.90121991376343        1.06444465653649
C           -5.65037486016714        1.49466614391501       -1.01354139779740
C           -6.54978938596179       -0.64172567589178       -0.14805241376856
H           -4.84149751912190        2.21485813762119       -0.87477773107360
H           -5.48852420980150        0.99194534390315       -1.97144015814279
C           -6.98888836266679        2.23686329693882       -1.05057403079837
O           -6.34345322924150       -1.62814135185720       -1.02461974247291
H           -7.80145282867117        1.50463444401084       -1.05809964673107
C           -7.16437115103375        3.14638474452154        0.16222559730219
C           -7.07223220558420        3.06068764720246       -2.33519023490749
H           -6.36988744128981        3.88915445137271        0.19664894855838
H           -8.11813490301363        3.66443850490911        0.10434056961608
H           -7.14698670346318        2.57774276056204        1.08748373073799
H           -6.99337103091691        2.42191665367882       -3.21209763737538
H           -8.02138609175580        3.58823332061126       -2.38301177288038
H           -6.26924334728083        3.79436183707772       -2.37006198064170
N           -7.66361170057328       -0.46475176772479        0.42664548101516
H           -8.82660226590476        0.67544566314879        1.20889833483333
C           -8.78745136111166       -1.34147572318944        0.18400775946071
H           -8.86341215017893       -1.63315163891161       -0.87161945915814
C           -8.70678805245231       -2.60888865406422        1.04188198377843
C          -10.05672994939262       -0.57009401896043        0.57339525621464
H           -8.58003118743377       -2.33967830397012        2.08865129610750
H           -9.62462792248251       -3.17875474238301        0.92803425092971
H           -7.86174519506432       -3.21609166484784        0.72668036892492
O           -9.80886638076633        0.58100636809522        1.18720046290579
O          -11.16404828989493       -0.97805879634405        0.35614514437464
