42
 energy: -62.486132263529 gnorm: 0.000628424107 xtb: 6.7.1 (edcfbbe)
N           -0.70260266951004       -0.08517844344640       -0.41526735368842
H            0.09895731316598       -0.46205887190813       -0.90623108832173
H           -0.52421554508933       -0.17731006593769        0.58139615451917
H           -1.80858640868381        1.46088686848563       -0.43207630712776
C           -1.92516683581237       -0.80487312636084       -0.76964863316051
H           -1.93779309687492       -0.90227526352760       -1.86395008679916
C           -2.04508339103259       -2.19127975001029       -0.13725961143770
C           -3.09894304810653        0.10219670854500       -0.40168581194415
H           -2.09186905602745       -2.10664762837580        0.94675597049705
H           -2.94746376723865       -2.68735367838255       -0.47955414181095
H           -1.18502176338050       -2.80087707616252       -0.40832487489095
O           -2.77851581136256        1.39820589778776       -0.30152141327805
N           -4.22414745314487       -0.42206811565860       -0.20822353735803
H           -5.11738771414733       -1.73176900254559       -1.07251587131743
C           -5.48521238115795        0.23993297753706        0.04318019712377
H           -5.59599416559637        0.38272568920903        1.12312698227767
C           -5.62646800335068        1.59885932065452       -0.67145975360611
C           -6.54980228223706       -0.74312658645878       -0.42903443401754
H           -4.83546991982208        2.25039838515385       -0.29915113149224
H           -5.44754870233247        1.43308377674248       -1.73784554907846
C           -6.96668826343102        2.31731185262689       -0.49916213756943
O           -6.09681336860911       -1.80117665434445       -1.11048827430189
H           -7.75759693094869        1.69802357453639       -0.92864478849361
C           -7.28671907218627        2.57983159057149        0.96975299462756
C           -6.92359118246359        3.63805983694303       -1.26725160439852
H           -6.49470504033679        3.16692242852334        1.43112099980333
H           -8.21799179212693        3.13416881647252        1.05568944906204
H           -7.39430863092732        1.64793840686103        1.51800157366106
H           -6.71029575352217        3.46687785722830       -2.31988746744585
H           -7.88026792179546        4.14861065120039       -1.19173964348674
H           -6.15252839285825        4.29063681416367       -0.86243412542389
N           -7.76699068982997       -0.53230828697463       -0.17218810315488
H           -9.13520893813238        0.54025612511769        0.43196373124646
C           -8.79370961643792       -1.44552596185970       -0.62776947055595
H           -8.63956677276080       -1.74567238968520       -1.67181958596581
C           -8.85822345411055       -2.70654967060023        0.24236645203913
C          -10.14038250313473       -0.71957527273626       -0.51194300109756
H           -8.97760290830448       -2.43030266411051        1.28811209492245
H           -9.70579060371699       -3.31240536650780       -0.06515945095517
H           -7.94237664336896       -3.28052167488292        0.12857528859051
O          -10.08059880365336        0.40457525657663        0.19240514392263
O          -11.15589927486387       -1.14267315330130       -0.99127477122632
