42
 energy: -62.486133058646 gnorm: 0.000566531379 xtb: 6.7.1 (edcfbbe)
N           -1.15796874333322       -1.59854144861518        0.64997422032414
H           -1.11819019037855       -1.37971839827387        1.63995460804950
H           -0.20969290756648       -1.74617503480272        0.32519402333213
H           -2.82510590083430       -2.47239163138975        0.47280179344641
C           -1.80166311074758       -0.51787493343786       -0.09542941231748
H           -1.53397918153405        0.48687816131005        0.25638049931290
C           -1.45779371252767       -0.63562690959123       -1.58034297879447
C           -3.30654630395659       -0.69502766202765        0.06690820778571
H           -1.71421635570883       -1.62684381797367       -1.94872889524566
H           -2.01475002435614        0.10758034344326       -2.14291821251737
H           -0.39394397402055       -0.47025884861752       -1.73658347979732
O           -3.66370109314141       -1.98413135159173        0.32128323408622
N           -4.04286509414022        0.30006479050359       -0.07748853651087
H           -5.18041476307050       -1.95016462847446       -0.61058680384154
C           -5.45943963870114        0.51525672157387        0.00338061411572
H           -5.62661483675327        1.03485111007033        0.95276339817805
C           -5.74699643327712        1.50855590831055       -1.15500129818719
C           -6.46200775087992       -0.62322664747236       -0.08226185583411
H           -4.93314604145396        2.23547543558386       -1.13651206842115
H           -5.67331445730130        0.95317198506203       -2.09356181445801
C           -7.08448861368208        2.24903384078393       -1.11789070283399
O           -6.13826676632321       -1.79660138113497       -0.64085387161001
H           -7.89478860443537        1.51583369500231       -1.13169016101432
C           -7.22489493605944        3.11509586580203        0.13061543593990
C           -7.20705844120155        3.11920281088386       -2.36872019048119
H           -6.41697663450780        3.84240904093127        0.18003839558454
H           -8.16998461316302        3.65161018115417        0.10730575951766
H           -7.20378548824383        2.51175364130475        1.03394641647965
H           -7.12442818886350        2.51638224368016       -3.27005591318587
H           -8.16992754836696        3.62337610628819       -2.38322682776373
H           -6.42360021113960        3.87415535723063       -2.38696204321240
N           -7.64750427108324       -0.34729816524289        0.26273049597849
H           -8.90807837842726        0.84267437663722        0.81802877092523
C           -8.71816362951151       -1.31031233115628        0.12447685829450
H           -8.72462078620085       -1.76814099487817       -0.87296945436486
C           -8.63602753367393       -2.42345826526825        1.17584499796703
C          -10.03969627929087       -0.55597293238762        0.32813047068416
H           -8.57969381136327       -1.98904171040726        2.17223339946255
H           -9.52432591777742       -3.04512566766395        1.10791813910418
H           -7.75320176198093       -3.03363580201375        1.00346481416047
O           -9.88047834069677        0.68533318575302        0.77193060240848
O          -11.11384999372891       -1.05115179057227        0.12541387510826
