42
 energy: -62.486133515647 gnorm: 0.000479568361 xtb: 6.7.1 (edcfbbe)
N           -0.91908506632542       -1.01997106646330        0.40254213594534
H           -0.12849147346076       -0.39633038544188        0.49204829430710
H           -0.56858633522725       -1.95095942660882        0.21145607299730
H           -2.32422985228332       -0.92035934881849        1.57144567758379
C           -1.85456859027025       -0.58318412741192       -0.63908856766913
H           -1.52304808263564        0.35035930667505       -1.10445481261714
C           -2.05422698186146       -1.63450635276690       -1.72901466222174
C           -3.19181608808821       -0.30077762954566        0.03836951933209
H           -2.38135663418916       -2.57511943695886       -1.29016791769441
H           -2.81647174378278       -1.29058189580374       -2.42084429196577
H           -1.12647207055533       -1.80081906952449       -2.27277490054127
O           -3.24532406975285       -0.64634456187178        1.34641785197583
N           -4.13930439573178        0.17517135684373       -0.63141123079654
H           -4.99471102666325       -1.70309553951175        0.79483592318147
C           -5.41075981675324        0.51076175390548       -0.01947281402291
H           -5.28281187057321        0.70312196009244        1.05901133726487
C           -5.96524039153720        1.75211047808277       -0.72073827309284
C           -6.32444694429139       -0.68981111608071       -0.14272202770588
H           -5.14564311902085        2.46371137451430       -0.83637320499628
H           -6.28716598284879        1.45236583230761       -1.71755277804014
C           -7.12212244941009        2.42159694799396        0.02986550969660
O           -5.85824356810356       -1.84323568814338        0.37964845685266
H           -7.80113263391539        1.64197149854444        0.38662293528488
C           -6.61573430329732        3.21931980347564        1.23041632466394
C           -7.88996602609695        3.34370248131891       -0.91538235517398
H           -5.95516778416612        4.01917531302471        0.90136891996566
H           -7.44977208799484        3.66481349169435        1.76772181144117
H           -6.06792427169462        2.58737194693325        1.92513200284220
H           -8.31027938199751        2.78616727103427       -1.74848647415746
H           -8.70478648143581        3.83441723128043       -0.38839194222520
H           -7.22907957047501        4.11115534950758       -1.31303459525728
N           -7.46250266684936       -0.57776704501028       -0.66512139185791
H           -8.59167004530540        0.36642241696711       -1.70174620051664
C           -8.37567457604555       -1.69033818966978       -0.78572233275363
H           -7.86896334144274       -2.60215464713065       -1.12563299722134
C           -9.08886725904726       -1.98433279600094        0.53863743053885
C           -9.43223373675121       -1.29072807328917       -1.82837045881455
H           -9.55978229813708       -1.07860919971154        0.91591389741052
H           -9.85199021240768       -2.73973604060894        0.37458261426850
H           -8.37351338792890       -2.34543118972863        1.27328778512697
O           -9.36312644177339       -0.01501949491530       -2.18647649344696
O          -10.24989820229231       -2.05652933852387       -2.25740873862750
