42
 energy: -62.486133513880 gnorm: 0.000479607560 xtb: 6.7.1 (edcfbbe)
N           -1.00757347016793       -0.96665689290929        0.74590891415810
H           -0.02616371860065       -1.03395554188442        0.50593345807643
H           -1.30079754608287       -1.87539777070475        1.09420053888415
H           -2.20473445295776        0.19349041537555        1.71767599463017
C           -1.81079479625649       -0.59487143262061       -0.41698082100839
H           -1.30600460546749        0.24831411641146       -0.90634492684118
C           -2.01709162751416       -1.71403320044806       -1.43707130399947
C           -3.13491433273550       -0.05932051096176        0.11096377468633
H           -2.52368250756182       -2.55922974526274       -0.97410390981002
H           -2.62258427684514       -1.35049334644431       -2.26086130330976
H           -1.05798262947246       -2.05091448827352       -1.82533767468146
O           -3.09918039010898        0.38990938926932        1.37208015123158
N           -4.14064637592012       -0.02823814483360       -0.64693885540539
H           -5.00720516487496       -1.59399694307890       -1.18050034822652
C           -5.42403137263227        0.46551202424672       -0.18629321343603
H           -5.41038222598222        0.72272005358220        0.87952486315417
C           -5.72938245767855        1.72286347042389       -1.02295542670156
C           -6.42794478440211       -0.65158796672687       -0.40327028289697
H           -4.93497904430287        2.44201446834682       -0.80683898599961
H           -5.64411788766997        1.44386222038538       -2.07571473061320
C           -7.08539002680321        2.39029171637981       -0.78816679586352
O           -5.93935862294338       -1.77821633719934       -0.94603192570842
H           -7.87062255462157        1.69232668670943       -1.08719728259685
C           -7.29071820822919        2.76931377995626        0.67568482633488
C           -7.18939563859378        3.63354254896775       -1.67092679804012
H           -6.49458932637312        3.43082509478862        1.01206118438403
H           -8.23962034567015        3.28575267455710        0.79832539187509
H           -7.29888331106515        1.88591869923167        1.30794636417578
H           -7.05273067950004        3.37633263745434       -2.71866667980307
H           -8.16731461298944        4.09428494219236       -1.55714497892523
H           -6.43153870409236        4.36405430242139       -1.39462363264075
N           -7.64849365109793       -0.47380225807915       -0.14012901943989
H           -9.06649373081535        0.58147855321492        0.38653545788019
C           -8.62172015282985       -1.51790916820852       -0.37703111862298
H           -8.49380130298016       -1.97482456922348       -1.36661262980679
C           -8.54942243173111       -2.62034445108414        0.68647683592240
C          -10.01322524258087       -0.87612985552119       -0.29892509476744
H           -8.63726219634127       -2.18457541353632        1.67997112506124
H           -9.36389395893139       -3.32251553936370        0.53207337108420
H           -7.60030964126695       -3.14477459632905        0.61085427744803
O          -10.00790687605464        0.34518016365812        0.22179922010097
O          -11.01330637730926       -1.43822562433045       -0.65041298823420
