42
 energy: -62.486133507380 gnorm: 0.000480576035 xtb: 6.7.1 (edcfbbe)
N           -2.09053683166772       -0.88708581714029        1.65437999457959
H           -1.14924248498297       -1.25754578174295        1.59825674617426
H           -2.61950586003206       -1.49716356294199        2.27292950263957
H           -3.04917024906971        0.75323877626613        1.93749840897214
C           -2.72162666404401       -0.86818202623178        0.33438266759277
H           -2.01161154355160       -0.39636591036958       -0.35822278116722
C           -3.11803309029471       -2.24087534053986       -0.20412764214689
C           -3.92109196752724        0.06248408944032        0.42964649363319
H           -3.73379110344256       -2.76775836950854        0.52169030974833
H           -3.69355095816892       -2.11470173344597       -1.11456317525430
H           -2.23207052633049       -2.83683028496352       -0.41370639277246
O           -3.85116588997373        0.97138384278970        1.42072446991346
N           -4.86786758531709       -0.05370659241547       -0.38827087051001
H           -8.26397856733236        1.30301448030634       -1.24267854526287
C           -6.01204663766834        0.82637250057879       -0.32982367907440
H           -6.03759282809156        1.38343652259001        0.62053777776331
C           -5.95983756534132        1.82190942180895       -1.50465641409677
C           -7.24025576658472       -0.06158018155888       -0.35909767443732
H           -4.91303435086483        1.93934511395889       -1.79113845220204
H           -6.46912118163783        1.38952937001846       -2.37059826360275
C           -6.53471557759867        3.20650436875040       -1.16689900129111
O           -8.38666801666501        0.41347330512195       -0.88713247378708
H           -7.44353235196370        3.09451877503369       -0.56030842301078
C           -5.52605300940348        4.01572154658938       -0.35370364632855
C           -6.89939010500460        3.95516624734954       -2.44804858659147
H           -4.64870424248304        4.23555283763866       -0.95826744943636
H           -5.96359755960683        4.95666498790669       -0.02830658783518
H           -5.20262523492647        3.46468773904177        0.52601774180476
H           -7.66253920229585        3.42343456353508       -3.01376501500581
H           -7.27916636060348        4.94669831026250       -2.21326747627681
H           -6.02168467029784        4.06631935079597       -3.08071582449702
N           -7.13723260645713       -1.19519367075527        0.17248886101683
H           -6.05661576639469       -2.33332317442832        0.92162239525758
C           -8.18763514425255       -2.17573107880105        0.26382097272199
H           -9.07117356004119       -1.77563400315629        0.77704106179987
C           -8.61182182500619       -2.72539715197574       -1.10191266993279
C           -7.60886902005336       -3.33229232942505        1.10122339721731
H           -7.73611819563523       -3.07154368050468       -1.64735211016636
H           -9.29392264581702       -3.55829058214948       -0.95594660740578
H           -9.10589246739580       -1.94866989323977       -1.67951381478584
O           -6.30933478382323       -3.20085744772393        1.33686942271654
O           -8.26376728920850       -4.26275338760074        1.48182860235738
