42
 energy: -62.486133492560 gnorm: 0.000488990471 xtb: 6.7.1 (edcfbbe)
N           -0.96718634520556       -0.50613392493762        0.67195966893596
H           -0.01547439800172       -0.69357793439566        0.38032720230397
H           -1.19680775414780       -1.16821772411390        1.40834951857438
H           -2.11578813447797        0.97622482880907        1.17736776231878
C           -1.89879871301794       -0.66501975863207       -0.44336633886926
H           -1.48460552992495       -0.10511059098435       -1.29285378389383
C           -2.14611364911134       -2.11220433206296       -0.86570463578097
C           -3.18790086890148        0.03593854147532       -0.04225704459781
H           -2.59731664081278       -2.66976967235070       -0.04755450098668
H           -2.82310298019091       -2.14081915087452       -1.71285394100729
H           -1.20810110415710       -2.58817152086136       -1.14539693811356
O           -3.04688838917262        0.99963412855569        0.87847453543616
N           -4.27945778077928       -0.29981070326519       -0.57158980042405
H           -5.41547503545604       -1.15568921759897       -1.93573700837878
C           -5.51466176426476        0.37509211693233       -0.22723142801799
H           -5.57851548475599        0.57618887717511        0.84653268209877
C           -5.63045686124787        1.69933101841750       -1.00597042462131
C           -6.62182875307623       -0.56431629680621       -0.64419926134024
H           -4.79240079393536        2.33310610089744       -0.70851342625141
H           -5.52225042681869        1.47666769649676       -2.07152740604600
C           -6.94539607310091        2.45087141774170       -0.77862000475218
O           -6.36067077445094       -1.29221170758768       -1.73817882946230
H           -7.77822741012230        1.78063704679865       -1.01406338595838
C           -7.08924026547555        2.91503198687045        0.66814719231493
C           -7.00915825632307        3.65174185346343       -1.72156269170416
H           -6.25124982545204        3.55084993643908        0.94679158084122
H           -8.00798453402149        3.48363205976548        0.78789673262770
H           -7.12596859452996        2.06947082796204        1.34892568449105
H           -6.93624465816472        3.33468840662299       -2.75957689437624
H           -7.94850412302790        4.18348686604880       -1.59282964349565
H           -6.19321861777791        4.34123202549738       -1.51405620346404
N           -7.67853516164139       -0.64003217588511        0.03846019346642
H           -8.86158293151006        0.21246134614546        1.11530228689008
C           -8.76283463465669       -1.51816250826356       -0.34579393806598
H           -8.89387228297944       -1.55879724986712       -1.43469891826331
C           -8.53934854233889       -2.94058616895352        0.17804740484761
C          -10.04780102726715       -0.96043595217327        0.28339427901479
H           -8.36215427418879       -2.91678394928621        1.25136077552252
H           -9.42223820712097       -3.54013547691807       -0.02492938769661
H           -7.67758355164013       -3.38465554876627       -0.31413851035045
O           -9.83359275024117        0.04511655698143        1.12360242319110
O          -11.13765335424599       -1.40278787885276        0.04719942667566
