42
 energy: -62.486133510695 gnorm: 0.000479946353 xtb: 6.7.1 (edcfbbe)
N           -1.18158020515220       -0.33210920432996       -1.69600692617288
H           -0.44993967123159       -0.94840467585019       -2.02683625806735
H           -0.73645252904453        0.45035725118165       -1.22450483969491
H           -2.75310009956577        0.51966614191509       -2.33816293190594
C           -2.07965232350109       -1.02532587915078       -0.77505635359563
H           -2.30648118964196       -2.00473043167638       -1.21591111751991
C           -1.51483255082895       -1.22209443796869        0.63043819133866
C           -3.39411558974281       -0.24512679176344       -0.75305235109632
H           -1.25895581885002       -0.25909512572622        1.06788105516048
H           -2.25736866323976       -1.69617533356688        1.26310980244060
H           -0.62250278578968       -1.84396487772276        0.59724189467914
O           -3.56942168797232        0.57058096854060       -1.79717135666149
N           -4.18959289684927       -0.44439965013611        0.20154827424835
H           -5.14785311540852       -2.16544555361831        0.48287238000204
C           -5.51206516605324        0.13871023223248        0.33617756361902
H           -5.63396591013950        0.27682965696806        1.42185357611835
C           -5.79095977987658        1.46958212674594       -0.36733734414722
C           -6.48716455903874       -0.95608071346291       -0.06024094383990
H           -4.89073962380440        2.08438147573322       -0.31627525847014
H           -6.00166910958385        1.27268291969809       -1.41838662055589
C           -6.95625328179799        2.24439446685894        0.26280349517769
O           -6.07198177413869       -2.21339393406803        0.18051968341453
H           -7.75348564855130        1.53607001400091        0.50402623545215
C           -6.52170017481461        2.94871946864281        1.54700719281567
C           -7.49519547338980        3.27160539685016       -0.73084623210882
H           -5.74818519679284        3.68382897975548        1.33246404174007
H           -7.36581990994007        3.46444072190089        1.99932021214609
H           -6.12951224603053        2.24226946542536        2.27513694332603
H           -7.85197877019990        2.78847932707715       -1.63749563097907
H           -8.32185135355798        3.82647443730723       -0.29315517601025
H           -6.71419649015847        3.97920600266654       -1.00318449975408
N           -7.60615217797553       -0.66752809678955       -0.55691697799857
H           -8.62630600122926        0.52162252850907       -1.47249589317104
C           -8.55644758621422       -1.68316727050433       -0.94735104343227
H           -8.06740421288901       -2.55914096725736       -1.39220357324330
C           -9.40304765406633       -2.14103631682520        0.24531787418604
C           -9.48886349761623       -1.04882634286389       -1.99048473489066
H           -9.86240762525421       -1.28020498583960        0.72735635768333
H          -10.18265632351470       -2.81239147809916       -0.10369126141552
H           -8.77517955607269       -2.65850824933965        0.96655457692481
O           -9.35569016425884        0.26815581269077       -2.08686742450209
O          -10.27346291867134       -1.68293292211561       -2.63905952088070
