42
 energy: -62.486132346049 gnorm: 0.000611413279 xtb: 6.7.1 (edcfbbe)
N           -1.56366221675393       -1.40054147204826        1.10654341680770
H           -1.19043595895093       -0.59305700456527        1.59466076140728
H           -0.80282703800031       -2.05139063801101        0.95120172024404
H           -3.41742593909698       -1.42963305614866        1.73885951628111
C           -2.17392115576282       -1.00224741601575       -0.15997282893120
H           -1.59493142248378       -0.25424240587820       -0.71997072595488
C           -2.38311377864102       -2.23706497018559       -1.03878348531859
C           -3.53203058966189       -0.41070874960328        0.17149641494456
H           -2.98806302293975       -2.97294929210611       -0.51303508036217
H           -2.88718910784676       -1.95661793372567       -1.95870197710042
H           -1.42490942626647       -2.68732540223427       -1.28950119389548
O           -4.08738681355091       -0.86559450787792        1.30143615177741
N           -4.05460096282741        0.43054482975125       -0.60770663654540
H           -5.36409971847327       -0.46981391994290       -2.21848649433600
C           -5.39047878839762        0.93152961098062       -0.32255910839890
H           -5.49798413134704        1.18240251849592        0.73791060297466
C           -5.64039030974717        2.16358618044770       -1.20237119290496
C           -6.37634663395732       -0.16506636073301       -0.64385818836204
H           -4.91346916435566        2.92785711606599       -0.92237654797160
H           -5.43933506011420        1.88973998041880       -2.24137540728349
C           -7.05901856640522        2.73220330294530       -1.09448311629201
O           -6.16673465439164       -0.81915938011774       -1.80412393816536
H           -7.77458625886549        1.93695055434165       -1.33014960993795
C           -7.35767015767212        3.24670211624796        0.31110740712701
C           -7.23357185221126        3.85830412752322       -2.11232065815166
H           -6.63333364193169        4.00624887272253        0.59845841790145
H           -8.35025078164519        3.68914986498644        0.34375607815341
H           -7.32609419108986        2.43916812853443        1.03671066150798
H           -7.05882268340981        3.49851617274469       -3.12381824114482
H           -8.24223430441580        4.26078143953149       -2.06298937274585
H           -6.53215373805945        4.66470217910073       -1.90854565497033
N           -7.31887005198369       -0.42097753421323        0.14857926283993
H           -8.38113170974432        0.08036047463390        1.52884333787610
C           -8.28520905593314       -1.46073907699158       -0.12713463143938
H           -8.60544742905716       -1.45610585267964       -1.17685633446891
C           -7.72824104468899       -2.84684182754690        0.21493534029136
C           -9.50618951560317       -1.19280181634010        0.76512259532968
H           -7.34785668661234       -2.85007311226996        1.23442636101305
H           -8.52042291250087       -3.58484847689023        0.12494002582244
H           -6.91910385572732       -3.09830975085934       -0.46633146242986
O           -9.29573191513537       -0.25507092028251        1.68046710443037
O          -10.54091500882177       -1.78959239365498        0.65493177038734
