42
 energy: -62.486133508338 gnorm: 0.000480800963 xtb: 6.7.1 (edcfbbe)
N           -0.87455416329743       -0.76632228238401        0.30007651457146
H           -0.53294103388597        0.16415523298730        0.51749781586078
H           -0.08711959949923       -1.32135338488484       -0.01360319151501
H           -2.34925264910158       -1.02285720676458        1.49603987333287
C           -1.91251949077302       -0.70995626180463       -0.72945399515487
H           -1.71902952983558        0.02511199304087       -1.52144759352809
C           -2.09493002689977       -2.09159789536422       -1.35984879483072
C           -3.20471531138945       -0.33420265082692       -0.03195437153660
H           -2.28886717304288       -2.83476670853573       -0.58886714000259
H           -2.93337784828134       -2.06943679358296       -2.04955956236680
H           -1.19858884933767       -2.37928575409102       -1.90489652155418
O           -3.25619089279831       -0.72228922471650        1.27349109245747
N           -4.11424868678604        0.25414667616175       -0.65860352066300
H           -4.97104618642615       -1.46848198253700        1.11907208627274
C           -5.38345818470761        0.61494222771264       -0.05645423831863
H           -5.22483382765285        0.94154662237788        0.98552342734655
C           -5.98668239786345        1.75116689469605       -0.88352299142119
C           -6.28109941485824       -0.60514855074735        0.00954221160120
H           -5.18991814565200        2.46719429000881       -1.09187085814483
H           -6.31069628404227        1.33007659614507       -1.83461187787458
C           -7.15508834643902        2.46932912970127       -0.19906815790484
O           -5.83953079049857       -1.65479474082680        0.72558692598278
H           -7.81938027361543        1.71640974442285        0.23462028998575
C           -6.66475591066033        3.39227216579678        0.91541755568502
C           -7.94119868440267        3.27786934209179       -1.22946324834993
H           -6.01145939241461        4.16199107681521        0.50922238844728
H           -7.50726376859263        3.88039846543690        1.39985809205728
H           -6.11474813389095        2.84210365145045        1.67499966708993
H           -8.35243177837929        2.63155128362691       -2.00068276137696
H           -8.76423474007997        3.80402008839106       -0.75160055070722
H           -7.29540644070278        4.01336386502778       -1.70460436443651
N           -7.39770848162836       -0.59007111728952       -0.57126755095083
H           -8.50330297851173        0.17505667821967       -1.76532247533328
C           -8.30666024368969       -1.71126866393488       -0.53832966176013
H           -7.79014704986920       -2.66493038103518       -0.70450773591735
C           -9.06821408689171       -1.78574491831139        0.78995789614179
C           -9.32690403370252       -1.49148333530562       -1.66680794346569
H           -9.55724440161447       -0.83457621135796        0.99170700731395
H           -9.82117823265049       -2.56630343059754        0.72806684986855
H           -8.37931384979005       -2.01033176516426        1.60035944157207
O           -9.25617324393694       -0.28348835718191       -2.21129838472667
O          -10.11977670336925       -2.32604023762633       -2.00445654461972
