42
 energy: -62.486133506700 gnorm: 0.000480056789 xtb: 6.7.1 (edcfbbe)
N           -1.67442197128137       -0.74054608088345        1.61749997212368
H           -0.77036564714309       -1.17846527584407        1.48582636054351
H           -2.11708610791438       -1.19327824086952        2.41299366525389
H           -2.49232797398761        1.01578138274948        1.69247470627360
C           -2.51200475180163       -0.91336591762545        0.42925814438277
H           -1.90714257921743       -0.61078855188214       -0.43637075587158
C           -3.03190628277579       -2.33122838216280        0.21023478835417
C           -3.64801518412013        0.09069909736213        0.53822539122924
H           -3.63435016532750       -2.64871156602144        1.05771486605731
H           -3.65433098428568       -2.35445111944781       -0.67685734487925
H           -2.20166751702366       -3.02364828638202        0.08615568475022
O           -3.36565298886565        1.17925490915444        1.28405839227403
N           -4.73401191268100       -0.12380952362310       -0.05404380113781
H           -8.05738071170280        1.69035442176647        0.47034391698124
C           -5.80968303872865        0.83600341908900       -0.00063785078915
H           -5.73567440919189        1.48442965387420        0.88734948872094
C           -5.70916761099337        1.69180036077704       -1.28300991504063
C           -7.10522417058817        0.06363588046070        0.06586111710620
H           -4.70183290438648        2.11521655694576       -1.29656144853744
H           -5.79031144284937        1.00537731520526       -2.12830676125290
C           -6.71930545993279        2.83131157180681       -1.45334971528780
O           -8.24198466357405        0.75454436661560        0.32454522768013
H           -7.73567089106511        2.42281998003061       -1.47324024883844
C           -6.60445455561887        3.87321014750911       -0.34030782375508
C           -6.47600538520086        3.50519386606305       -2.80445208458940
H           -5.60065499232371        4.29255969451962       -0.32657844175850
H           -7.31064523557997        4.68357975924959       -0.50861089414576
H           -6.80271349664630        3.45626589640676        0.64572084290607
H           -6.57677749808974        2.78800236416284       -3.61537717104094
H           -7.19400521225612        4.30626524696804       -2.96413170784729
H           -5.47497083343843        3.92907514810529       -2.84301989647411
N           -7.07772366621836       -1.18577162328107       -0.04533154118036
H           -6.05886259281130       -2.63931868481751        0.02158860565258
C           -8.23764056818907       -2.03106478962410        0.05850929139557
H           -8.90620621063262       -1.72489570174524        0.87391926369084
C           -9.03472508037196       -2.06401418515739       -1.24958469835206
C           -7.70917311728108       -3.44726385261467        0.34937495618150
H           -8.37537716696568       -2.31516214912032       -2.07781375126355
H           -9.81634250413586       -2.81486725127775       -1.17493176125584
H           -9.48334239284812       -1.09119108607169       -1.43527225534167
O           -6.39188526786617       -3.54765863073779        0.24152903044142
O           -8.42516745464207       -4.36790208308938        0.63354465413409
