42
 energy: -62.486133513484 gnorm: 0.000479654853 xtb: 6.7.1 (edcfbbe)
N           -2.05824622156223       -1.05572302921843       -1.76483979114240
H           -2.09893333334130       -0.27504437094667       -2.41244163267758
H           -1.94896225121948       -1.90368948376169       -2.30960865427313
H           -1.35159796694038       -0.30400456676272       -0.18543489980175
C           -3.28582548680451       -1.11997160336925       -0.96249833323770
H           -4.19934256625637       -0.97858686041704       -1.54825033800589
C           -3.34008580520992       -2.47014174587523       -0.24762866085179
C           -3.17520512816432       -0.02201916918803        0.09892145814898
H           -2.45229479015628       -2.60490298361525        0.36686638342943
H           -4.22085301174088       -2.51106558273921        0.38444670932394
H           -3.39094634121949       -3.27948697763948       -0.97320395290834
O           -1.89948730047547        0.21319087860605        0.44354665891344
N           -4.03187119593937        0.68587733740675        0.68043237899244
H           -7.73121570985311        0.68252639788343        1.33811840247500
C           -5.44275020971153        0.84265602721303        0.68889379144340
H           -5.68605240383329        1.03768278847491        1.74482261888055
C           -5.69010823683427        2.13988552161214       -0.13811949014156
C           -6.41496441138333       -0.21512909596541        0.20576172977395
H           -4.88806829014917        2.82681543260228        0.13836267405006
H           -5.55066111634292        1.87500513617879       -1.18891895513140
C           -7.03231659317777        2.86131863263539        0.02406437020351
O           -7.69158817513720       -0.05983102988887        0.72228404694132
H           -7.85663620473969        2.18560955356275       -0.22959042061974
C           -7.22736254078808        3.40047393629875        1.44112370768456
C           -7.08429557757202        4.02212391832364       -0.97025988360757
H           -6.44111229062266        4.11377789115139        1.67683807378080
H           -8.18569545744967        3.90891805943233        1.52145280192216
H           -7.19971007831870        2.61695726402987        2.19672762465267
H           -6.99133852273608        3.65810658081900       -1.99051020916449
H           -8.02838856559230        4.55453468367469       -0.88260825529362
H           -6.27472644527740        4.72273782982620       -0.77920785218860
N           -6.09745081067921       -1.16363094752182       -0.54119465276484
H           -8.60628456870798       -0.49152705981140       -0.78643748152925
C           -6.94944460777806       -2.22123689493348       -1.02714955988130
H           -6.27413083198343       -2.92469104022855       -1.52822000207868
C           -7.73247963466917       -2.97115614092204        0.05748637287834
C           -7.92344217987728       -1.71288105375714       -2.10130240981389
H           -8.46838751888022       -2.33225948258250        0.54024470072794
H           -8.24241983577430       -3.82030527051596       -0.39068259177813
H           -7.04197595436469       -3.33507839116843        0.81538906438568
O           -8.75582236156973       -0.74680817795901       -1.71682530350263
O           -7.94371069995840       -2.16105184550670       -3.21191486320282
