42
 energy: -62.486133497192 gnorm: 0.000481598865 xtb: 6.7.1 (edcfbbe)
N           -1.51480427402803       -0.49321036617046        0.10578475261105
H           -0.84557530942129       -1.25175467256303        0.06647645006269
H           -1.22592404078915        0.13180940546181        0.85338353133950
H           -2.34619551408552        0.71320077760829       -1.04237736910959
C           -2.86416519908614       -0.99499332692444        0.37340901198481
H           -3.00877327894180       -1.89844228473763       -0.23050443591569
C           -3.13031768865821       -1.32440747730005        1.83969609537662
C           -3.85520307288127        0.04220208950231       -0.15935869569792
H           -2.96365422895086       -0.44318295741849        2.45674925386598
H           -4.16014327809822       -1.64051953671765        1.96106218857714
H           -2.46924648794083       -2.12091221311479        2.17494353791094
O           -3.30272214452562        0.93411969999045       -1.00767898381743
N           -5.04593404444331       -0.04662488736317        0.21278930682854
H           -8.47618049170873        1.24093948113128       -0.82904104555801
C           -6.18445796880979        0.75477376356530       -0.13204488376366
H           -6.36502930291125        1.40220003862217        0.74102354898453
C           -6.13106077255451        1.63013227642600       -1.40800566323799
C           -7.36826735158115       -0.19676877442252       -0.18930679797768
H           -5.10650461302612        1.65481727406137       -1.77151677908832
H           -6.73228281433426        1.16219553999824       -2.19345965920412
C           -6.59343261328335        3.07790467183545       -1.18613511229983
O           -8.55563262867261        0.30683502179368       -0.59722716156822
H           -7.52550884046193        3.09088491059606       -0.60253719334044
C           -5.53910534415067        3.86462789219193       -0.41075862179751
C           -6.86414547535215        3.74948699082212       -2.53130800373392
H           -4.61533018590182        3.91212658837686       -0.98239207386242
H           -5.88208910460672        4.87918479726562       -0.22007408405244
H           -5.32136052421909        3.39225294326384        0.54429613327011
H           -7.64719474532818        3.22842648098446       -3.07902609882306
H           -7.17764291961383        4.78078599016304       -2.38663088522027
H           -5.96233106264599        3.74734707323027       -3.13908545882276
N           -7.21552064977298       -1.38491939393846        0.18124325983114
H           -6.13402573116348       -2.53974422913556        0.93888625157857
C           -8.25989860695852       -2.37518409278004        0.21773701589711
H           -9.15390381146688       -2.00694114220701        0.73733964822282
C           -8.66415901146827       -2.85741779352363       -1.17901394106160
C           -7.68392427089674       -3.56744188745806        1.00582528377962
H           -7.78107711279168       -3.17203621433370       -1.73152256776750
H           -9.34284664714642       -3.70026945197624       -1.08288793937165
H           -9.15690990172020       -2.05542593054495       -1.72267572623108
O           -6.39713794930780       -3.43043394362842        1.29243932698293
O           -8.33657223796768       -4.52764862235875        1.31041907181135
