42
 energy: -62.486133512059 gnorm: 0.000479871819 xtb: 6.7.1 (edcfbbe)
N           -2.30630304005848       -2.00375836879744        1.17865955115941
H           -2.49531898311880       -1.94748744781393        2.17411087299413
H           -1.33888129096233       -2.27734534764492        1.05610846333388
H           -3.99541566953785       -2.48010402657717        0.52197410583761
C           -2.57787641827300       -0.72701728731956        0.52323341745635
H           -2.23448183411484        0.14719451048012        1.09268438436526
C           -1.92671424933979       -0.70859976706040       -0.85956557735788
C           -4.09524477122213       -0.62213189163480        0.35119851156416
H           -2.26175667744079       -1.56462935487812       -1.44093138754048
H           -2.20562554844214        0.20290426036307       -1.37878786491802
H           -0.84287318080467       -0.74712613119436       -0.77136681032895
O           -4.69866053042024       -1.82183618593260        0.31671469026783
N           -4.56064468490047        0.52430770974722        0.17549107808970
H           -8.17450779801739        1.74450362125130       -0.25259977233544
C           -5.88030637744344        1.05556825227412       -0.01223594474558
H           -5.93715086097024        1.89995878115740        0.69000716774326
C           -5.83759006092033        1.60357181364417       -1.46838251741399
C           -7.11181432532801        0.20503348818489        0.22558992312469
H           -4.80725186202542        1.93786459331728       -1.61135491044189
H           -6.00062788894318        0.75752272023458       -2.14057371531041
C           -6.75921387914187        2.75966884516015       -1.88364418941497
O           -8.30148077108794        0.82063599795328       -0.00950638572007
H           -7.79535020290445        2.41191339212864       -1.97372333825575
C           -6.69837317820059        3.93814384235296       -0.91248949723276
C           -6.33427734897550        3.22731941002790       -3.27778233596756
H           -5.66752906673074        4.25901705657274       -0.78040752683076
H           -7.26910493714527        4.77593730379677       -1.30738546471288
H           -7.10564549125742        3.69382276726736        0.06717514491297
H           -6.35545262855754        2.40023585992747       -3.98344152004540
H           -7.00514835335234        4.00294801688178       -3.63981295866222
H           -5.32476655107511        3.63123721092895       -3.25183822857711
N           -7.05630563418596       -0.94468712274098        0.72357834634563
H           -6.09613849904488       -2.39497015900042        1.46223810715191
C           -8.24295164902650       -1.70349486962813        1.03134145892843
H           -9.03543668036798       -1.07848816326256        1.46312566566330
C           -8.78920724652580       -2.40862418289800       -0.21579609943001
C           -7.84177408975488       -2.78054950219864        2.04701584070511
H           -8.00416524764948       -3.00547125099067       -0.67586899584487
H           -9.61441314125346       -3.05633193891222        0.06696016604219
H           -9.13957431662993       -1.66992655910953       -0.93263289850975
O           -6.53930603075106       -3.01787044417332        2.09041372298598
O           -8.64153028681851       -3.37088504307736        2.72144241577524
