42
 energy: -62.486133513279 gnorm: 0.000479780311 xtb: 6.7.1 (edcfbbe)
N           -0.99904510596883       -0.60816168514563       -0.47370272183477
H           -0.28623564390874       -1.30047497796182       -0.67097319113885
H           -0.74814918079863       -0.15303459430767        0.40022836097502
H           -1.96125852614825        0.79532999211494       -1.34124233994655
C           -2.31381720705443       -1.23536424581206       -0.34090733845299
H           -2.44201738775185       -1.90207404272955       -1.20426709603493
C           -2.51769903784072       -2.03268918501614        0.94385526466091
C           -3.35524806887314       -0.12876233320002       -0.48851767073933
H           -2.35121665803082       -1.39541930344969        1.80985348596656
H           -3.53831390041665       -2.39742971653258        0.98153895708712
H           -1.82891191291636       -2.87405659390244        0.98339488336755
O           -2.91769228209860        0.93942137683229       -1.18791908236629
N           -4.49292829546504       -0.31037225137955        0.00331878141847
H           -5.94159680009756       -0.03329739685911       -2.34987381864829
C           -5.63246831755743        0.57414400628519       -0.03437228653401
H           -5.89355504832894        0.73839202133028        1.01691221069141
C           -5.49791378519368        1.92548762245534       -0.75148115513993
C           -6.74435659170242       -0.26566026012925       -0.63114871773409
H           -4.76118867508459        2.52610935106580       -0.21541616436512
H           -5.10901466313316        1.77876538704950       -1.76286560812225
C           -6.82205458301494        2.69609284257097       -0.83513758377451
O           -6.69679988382950       -0.49154454637298       -1.95916705523681
H           -7.55831424964717        2.08253714359171       -1.36759305655120
C           -7.38253073845564        3.01985708332269        0.54756921101444
C           -6.60512963427363        3.98343198441537       -1.62955436306098
H           -6.63668959168660        3.53433377111420        1.14998156103435
H           -8.25172217525570        3.66675687820511        0.45424309335475
H           -7.69153953447690        2.11615087618031        1.06589950223642
H           -6.22228354027101        3.76697760480094       -2.62475789142891
H           -7.54029385593826        4.52786435149398       -1.73522236332186
H           -5.88984538142708        4.62532544977084       -1.11974439929576
N           -7.61881196938412       -0.76141777162411        0.12476010783330
H           -8.47926371966171       -0.80920046451857        1.72448467154281
C           -8.67438860134341       -1.61011557134604       -0.38241127182800
H           -9.09593853423002       -1.22660119682706       -1.31988258366988
C           -8.17920860902921       -3.04266333117479       -0.61054125398654
C           -9.77851620673339       -1.64644084765984        0.68423828296065
H           -7.72296730552826       -3.42580174173394        0.29990437867081
H           -9.01978958331677       -3.67447570657717       -0.88338994400967
H           -7.44102441676899       -3.05539836944648       -1.40833015930729
O           -9.39943017182848       -1.13926187885141        1.85137072766989
O          -10.86702187488794       -2.10928552642567        0.48580070581180
