42
 energy: -62.486133519874 gnorm: 0.000478998827 xtb: 6.7.1 (edcfbbe)
N           -1.08203829469682       -1.26832606544972       -0.68493737619691
H           -0.80275618063788       -2.05806368366352       -1.25396083400121
H           -0.70467832516854       -1.41360066942866        0.24737337611391
H           -1.02899349247153        0.56783811933204       -0.57328940981880
C           -2.53958718880832       -1.14645354659885       -0.61830667479100
H           -2.92358110826956       -1.38973155881489       -1.61653877863055
C           -3.16194091278101       -2.08042261963944        0.42346886313754
C           -2.86987400734452        0.33860883836263       -0.27805062503563
H           -2.79090471896729       -1.82531916616118        1.41515928569252
H           -4.24376852806752       -1.99970010603330        0.43753871794630
H           -2.89972695892796       -3.11458594170957        0.20475912013244
O           -1.78879233386463        1.13221679045156       -0.31400575009078
N           -3.92466158196556        0.82462625557782        0.17145464503452
H           -4.73759160393082       -0.57583940772907       -1.68452676952685
C           -5.33203140708265        0.86122018338502        0.15008398022252
H           -5.64762043066116        1.03562917483750        1.18332331791775
C           -5.73574379373466        2.09476774068465       -0.70064565099392
C           -6.09558631288257       -0.34068823807473       -0.37280903034128
H           -5.09237778233401        2.91377241460523       -0.37714843397273
H           -5.49725702940042        1.88260540797763       -1.74689082847129
C           -7.20239029961156        2.51996196685536       -0.59530100012185
O           -5.54778756443955       -1.02104633232419       -1.40703186762146
H           -7.83960199418003        1.67238057239065       -0.86553473834647
C           -7.56520971639834        2.97203097374242        0.81640553243648
C           -7.46549619238569        3.65345743707738       -1.58649265664968
H           -6.92459336920652        3.79467046136432        1.12660561395607
H           -8.59792782081941        3.31021799821061        0.84450096453543
H           -7.45911610184911        2.16082059198324        1.53118280363389
H           -7.24352861005012        3.33993319608948       -2.60409758211500
H           -8.50850714876316        3.95663604709660       -1.54378192452241
H           -6.84651187250954        4.51623897972195       -1.34995113296042
N           -7.28062759477372       -0.52692708282752        0.01211229749157
H           -8.77256790376607        0.08973437792149        0.87742551496171
C           -8.11845445461684       -1.55269149432194       -0.56590962612648
H           -8.04264172397917       -1.56812966120217       -1.66151404457766
C           -7.76843055931439       -2.94543564687538       -0.03120392115838
C           -9.56985568340688       -1.23073403183207       -0.17847242217021
H           -7.77772963749342       -2.93879592496540        1.05700478310079
H           -8.50365147059512       -3.66038744545988       -0.38946865346282
H           -6.78057134283356       -3.23986802575506       -0.37740034937344
O           -9.68253444029518       -0.24024815110540        0.69783797833396
O          -10.50894379996514       -1.83195771546362       -0.61973517226656
