42
 energy: -62.486133508246 gnorm: 0.000480798150 xtb: 6.7.1 (edcfbbe)
N           -1.13664402441518       -1.39124937101083        0.70152430088568
H           -0.13080798429281       -1.32192097518645        0.60896269327561
H           -1.38691048622997       -2.36755353432568        0.56872948721790
H           -2.53118718629827       -0.81255458176203        1.89167599910438
C           -1.81321150935228       -0.56315557994123       -0.29646287788840
H           -1.30437379711447        0.40878944214928       -0.31606007242651
C           -1.83629889066989       -1.14704758510197       -1.70727651530598
C           -3.22103537417940       -0.29929343924606        0.21180839034463
H           -2.29577364987830       -2.13376421064031       -1.69879289101550
H           -2.42401262641166       -0.50190066964368       -2.35139583689141
H           -0.82587753908334       -1.23118778334957       -2.10159776881820
O           -3.39835965432597       -0.52737535035325        1.53871625335074
N           -4.11113289778928        0.10289867013376       -0.57490706668478
H           -4.93418611542243       -1.76655570469124        0.66671382553619
C           -5.43966761768147        0.46332784487047       -0.12955167751493
H           -5.40749514957895        0.80733823300133        0.91880405930543
C           -5.96533008674515        1.58414044715144       -1.03225844309800
C           -6.34669191415962       -0.75168660073725       -0.13151560394049
H           -5.11756021750083        2.21423762156893       -1.30656792390068
H           -6.35161960925377        1.13122061601300       -1.94499350516875
C           -7.04902197229168        2.44518742827368       -0.37264803777793
O           -5.82919945525227       -1.90729982980417        0.33008829881758
H           -7.74106989056461        1.78431286945671        0.15718111564705
C           -6.44029653809817        3.42430865634410        0.62990040379029
C           -7.82455672357661        3.21551475577085       -1.43956231827333
H           -5.77258674492737        4.11805113795581        0.12276539433008
H           -7.22241483574362        3.99941157436501        1.11999036826946
H           -5.87286542092469        2.90496433150187        1.39842686515361
H           -8.31630754703136        2.53723348119403       -2.13209727682093
H           -8.58520042700937        3.84074098578473       -0.97826378771338
H           -7.15177088176157        3.85704161956202       -2.00496926794656
N           -7.55045755079392       -0.62888792479131       -0.47686769900310
H           -8.78515735042038        0.28600693353724       -1.42697926959841
C           -8.47829959744589       -1.73588112718351       -0.45050748728488
H           -8.02306483156051       -2.66302675545505       -0.82091904050783
C           -9.02390351011315       -1.98187369628668        0.96030584748144
C           -9.65237343184816       -1.36290197648884       -1.37000629242666
H           -9.42980411198351       -1.05797512229413        1.36757220067045
H           -9.81286178662798       -2.72713659516023        0.91358041754857
H           -8.22805006604905       -2.33697791134044        1.61017316860535
O           -9.61074179881253       -0.10788760412996       -1.79863625201815
O          -10.52801046309921       -2.13165855857104       -1.65514708287971
