42
 energy: -62.486133510171 gnorm: 0.000479459527 xtb: 6.7.1 (edcfbbe)
N           -1.61824287646620       -0.42331502077216        1.01939380121329
H           -0.76446833081447       -0.94610974540665        0.86393098007351
H           -1.86332706622482       -0.52875519641317        2.00033734118763
H           -2.40526138832765        1.30476567313612        0.60420104149131
C           -2.70334473945761       -0.94422918921436        0.18609802303628
H           -2.31422463556816       -1.01432867746699       -0.83884116489732
C           -3.24656876572261       -2.30494651728672        0.61167237922702
C           -3.79359643015522        0.11633324825853        0.16326829703033
H           -3.65194359325410       -2.25164916133483        1.61895340811961
H           -4.04411699019425       -2.60225244580952       -0.05925060454175
H           -2.45639365803446       -3.05268258756280        0.58547145363397
O           -3.35177954036556        1.37453201528712        0.36839941788513
N           -4.98397881613610       -0.22554546096126       -0.03498767164395
H           -8.27116282116798        1.39404877669898       -1.03280399464684
C           -6.07273067831699        0.71673885213973       -0.12679477706661
H           -6.16133663531619        1.26382581553412        0.82545057100844
C           -5.90999691089278        1.74001979270963       -1.27323535968519
C           -7.33146820764956       -0.11551575070721       -0.29353298429739
H           -4.84618979209198        1.84511571882459       -1.48655413225968
H           -6.37472227365323        1.33584569075639       -2.17751118081181
C           -6.47255076661843        3.13574594819448       -0.95526669586962
O           -8.44141575993843        0.47525656741774       -0.79000137654279
H           -7.41601649745171        3.04618126611708       -0.39891247075289
C           -5.49536216302535        3.92076173871950       -0.08303698298901
C           -6.75040949213831        3.89855047926048       -2.24987599086208
H           -4.57801673081415        4.11795612844512       -0.63237641919203
H           -5.92999711730126        4.87120849986053        0.21826959781990
H           -5.23554201324663        3.36014051993345        0.81085833985440
H           -7.48710847484740        3.38216898463249       -2.86298759506241
H           -7.12794546476989        4.89456101344835       -2.03048033421196
H           -5.83538762185104        4.00002017651626       -2.82903305240726
N           -7.29804791723996       -1.31511061855829        0.07217598087986
H           -6.33874638497863       -2.58447219936361        0.82823868930416
C           -8.40640935774760       -2.23047522022150       -0.00012722866655
H           -9.30412346246083       -1.82281289737674        0.48248533228280
C           -8.75547606689363       -2.62505505203298       -1.43884993994995
C           -7.96368425558559       -3.49291026707161        0.76414449044512
H           -7.86182508998142       -2.97331915788980       -1.95274000922010
H           -9.49114169741105       -3.42431565024883       -1.42140547765689
H           -9.16186196331850       -1.76970778826958       -1.97228277095371
O           -6.68932087490537       -3.46535930561268        1.12539657880584
O           -8.70094798662518       -4.41293499138725        0.99107793153995
