42
 energy: -62.486133523443 gnorm: 0.000477804968 xtb: 6.7.1 (edcfbbe)
N           -1.49478391290641       -0.61722214147541        0.19434607546805
H           -0.83083695484891       -1.38075105817691        0.15467196461796
H           -1.24704891004077       -0.03842997352724        0.99264750293855
H           -2.25714808979759        0.66182595956217       -0.92913780891334
C           -2.86163879778364       -1.11834505095380        0.35503076527267
H           -2.98477548081166       -1.96583485587178       -0.33011249324754
C           -3.20141402614489       -1.56450513262133        1.77417759779817
C           -3.81064155640059       -0.02398034334240       -0.13709013032883
H           -3.06968787547855       -0.73586205004689        2.46769038403686
H           -4.23466962510166       -1.88899551564179        1.81851148017053
H           -2.55497109078225       -2.38577893717193        2.07696832055353
O           -3.20914062888910        0.90178511597638       -0.91431301005024
N           -5.01288411622404       -0.09742010873948        0.19984731783970
H           -8.33182014567837        1.29094263480741       -1.04820099405209
C           -6.11784893904988        0.75868975432756       -0.12611951078692
H           -6.29772927928017        1.36313650872977        0.77693323840609
C           -5.99704300721780        1.70139729023617       -1.34666894661429
C           -7.32812509378479       -0.15299060881745       -0.26411626326100
H           -4.94529869822382        1.80430374984098       -1.60321572093138
H           -6.48590167639982        1.23783439992736       -2.20907687266840
C           -6.56500836226701        3.10928478802031       -1.10565901360156
O           -8.45894709717798        0.36957252794468       -0.78834801693181
H           -7.52142409185555        3.04937488340751       -0.56644181738086
C           -5.60276642037593        3.93432908061050       -0.25364203524862
C           -6.81299726062926        3.80689746191055       -2.44214380838206
H           -4.65588588921567        4.05879212051199       -0.77377793069634
H           -6.01910554673839        4.91877122189549       -0.05171323348329
H           -5.40543876843836        3.44535220918856        0.69757155261496
H           -7.53664958140483        3.25913538717382       -3.04320426241192
H           -7.19455963262816        4.81278569875228       -2.28299275633540
H           -5.88528954907192        3.87734456135796       -3.00526196150265
N           -7.25139400735795       -1.33443606399977        0.15117613241691
H           -6.28065591919719       -2.52966568667698        0.98347190483420
C           -8.33234253283469       -2.28555979220148        0.10458101331125
H           -9.24756817235686       -1.88322970035245        0.55792814836322
C           -8.64983788394009       -2.74977330255674       -1.32058460275901
C           -7.86452884649318       -3.50064656858971        0.92781936555658
H           -7.73991351846197       -3.09552710984478       -1.80742368789633
H           -9.36417663716038       -3.56716912385946       -1.27896293167700
H           -9.07121647012371       -1.92910120510635       -1.89551258507304
O           -6.59950192527202       -3.41146291047107        1.31341535695808
O           -8.57357524603095       -4.43689369437685        1.17586696639113
