42
 energy: -62.486133514980 gnorm: 0.000479755799 xtb: 6.7.1 (edcfbbe)
N           -1.22701544775571       -0.68923420065534        0.18450177055316
H           -0.50162588870503       -1.37201575669035        0.00053055930576
H           -1.20190058980519       -0.47927062334795        1.17898550180529
H           -1.92532635373602        0.96022523878573       -0.51912179309317
C           -2.54277987448739       -1.22036113575322       -0.17107620129464
H           -2.45999276580619       -1.63097393847974       -1.18642983731333
C           -3.07527822625710       -2.30024293491458        0.76634192524737
C           -3.49761158721515       -0.03342140401160       -0.26036342185157
H           -3.12294012200988       -1.92132053283734        1.78490875427036
H           -4.07844843137557       -2.57640699816678        0.46105065093988
H           -2.43199510638397       -3.17752492728964        0.74213561436423
O           -2.88758481925027        1.13881465503003       -0.53480102031593
N           -4.72053425245219       -0.23968441447591       -0.08993809425197
H           -6.88355226116306        0.59920805810329       -2.38434776827623
C           -5.80039374052478        0.71635138058895       -0.15780288314929
H           -6.00803151888354        1.00264149553423        0.88089365501362
C           -5.57828321115810        1.97933590388588       -0.99914583826558
C           -6.98192191486408       -0.12884764979799       -0.61240229284810
H           -4.70238177793493        2.49755792750448       -0.60890043822443
H           -5.33118309773313        1.69644434121205       -2.02923145189914
C           -6.77208912955205        2.94594855973613       -0.97976106427487
O           -7.38535356589866       -0.06614605869403       -1.89625339835819
H           -7.70428956876371        2.39190073782578       -1.14076495665568
C           -6.87699385238232        3.66038815708261        0.36593239650846
C           -6.61982777191413        3.97256718220831       -2.10198709170129
H           -5.96557052983651        4.21824931852470        0.57075232998141
H           -7.71109660408059        4.35815387010976        0.35686881358356
H           -7.03974647955573        2.95299634543499        1.17503079037305
H           -6.60280289882152        3.49089686357846       -3.07800434100164
H           -7.44753475629349        4.67748195227139       -2.08717884409601
H           -5.69327560877180        4.52924443181875       -1.97928485830305
N           -7.48095007477745       -0.93048049109218        0.21917277372034
H           -7.60732317239507       -1.54784024455894        1.90626893467241
C           -8.53319676202960       -1.85675404335449       -0.12929583283036
H           -9.34597907189057       -1.36630476310937       -0.67941082674512
C           -8.00665460606803       -3.02968282864573       -0.96450874380894
C           -9.08867591840865       -2.41770142084741        1.18894844826909
H           -7.16583856294904       -3.49607190981718       -0.45510667447639
H           -8.79828898157189       -3.76235617508082       -1.09391229424248
H           -7.67800146579236       -2.67439609880777       -1.93746820384820
O           -8.33738495736594       -2.12225369014375        2.24206030081591
O          -10.08653592983050       -3.08114002234497        1.25105007898840
