42
 energy: -62.486133517948 gnorm: 0.000479469974 xtb: 6.7.1 (edcfbbe)
N           -1.31709800057595       -1.37652654379076        0.30411210971822
H           -0.72618382163121       -0.57345147825535        0.49131942136294
H           -0.72025696027880       -2.14021622968017        0.00966466951158
H           -2.81040156252201       -1.12931108098504        1.51263288354047
C           -2.30401262098561       -1.06428340628113       -0.73038089720381
H           -1.91839827552037       -0.42314114294721       -1.53407141704353
C           -2.85179824356865       -2.35451104195576       -1.34128582556928
C           -3.45778275575077       -0.34578227049402       -0.05912002942514
H           -3.21106867584319       -3.01541234792657       -0.55537724596357
H           -3.67802609820472       -2.11328405908351       -2.00273666071606
H           -2.07635791126443       -2.86785772410573       -1.90603294266608
O           -3.58783008197319       -0.58888574885196        1.26146084194031
N           -4.23014566590088        0.36797028654876       -0.74504687422724
H           -6.76944931795982        0.72296030786914        1.87265646646113
C           -5.37646997646200        0.98354699263518       -0.11366224429384
H           -5.08970936374326        1.42181896685398        0.85559900022581
C           -5.90395145754877        2.06309851234084       -1.07069352132443
C           -6.44663611903350       -0.05767500458439        0.11443084302079
H           -5.08939477482504        2.76119601837821       -1.26968396396080
H           -6.14200838692906        1.55045683892899       -2.00286278844081
C           -7.13299878682210        2.82792493854134       -0.57030805496986
O           -7.14871391857915        0.04276626160404        1.30332128342771
H           -7.89628959182071        2.11090195312272       -0.24763608139977
C           -6.79171650690853        3.75196400626388        0.59836745491744
C           -7.72064804673683        3.64731718101293       -1.71780538521144
H           -6.05897829977064        4.49357579375034        0.28703987082553
H           -7.68290220281724        4.27449556210689        0.93895886466047
H           -6.37994708153267        3.20547686772175        1.44439706293555
H           -8.02274244060462        2.99652326650727       -2.53415711675119
H           -8.59283029686903        4.20346975806831       -1.38218958709534
H           -6.98463540819350        4.35442408052437       -2.09422577333436
N           -6.65660502450598       -0.92592685519177       -0.75762878923691
H           -8.76997511065852       -0.35039267612510        0.61192142497510
C           -7.61058588212942       -2.00218953283432       -0.70937671523970
H           -7.38320953888317       -2.62838944278621       -1.58005042930729
C           -7.53175745781751       -2.86065118099179        0.56082296686415
C           -9.05786787556781       -1.51747063150269       -0.88742661832286
H           -7.81636203144938       -2.29359461344608        1.44445806823687
H           -8.19409998760809       -3.71696990783360        0.46142461987729
H           -6.51146036502472       -3.21438701693853        0.69194015600109
O           -9.47100024198646       -0.59090290299566       -0.02312721055913
O           -9.78388508482908       -1.96070039642513       -1.73070662139026
