42
 energy: -62.486133514535 gnorm: 0.000479762626 xtb: 6.7.1 (edcfbbe)
N           -1.41655086223950       -0.11462096507564       -0.45360537194744
H           -0.54091212134407       -0.56162143100454       -0.20278216311363
H           -1.78863856258860        0.34935197428430        0.36827004621900
H           -4.03474433896526       -1.06326083675980       -2.70752687417264
C           -2.37767925623621       -1.10345444914118       -0.90417424309007
H           -2.10604249020472       -1.37897258173177       -1.93510950293610
C           -2.41628873734798       -2.38036737855686       -0.04529797541395
C           -3.76441511904100       -0.48442562624611       -0.89176222682742
H           -2.67474476670118       -2.11849756469596        0.97800131542894
H           -3.15929442368502       -3.07852335330489       -0.42454559472993
H           -1.44358157411851       -2.86855033856981       -0.05498206109583
O           -4.51626818848245       -0.62218867330443       -1.99593383256766
N           -4.11116202964443        0.09976612828634        0.16641747623079
H           -6.49445114418492       -0.52322732871788        2.18696007739517
C           -5.39857674100519        0.70921366965194        0.41622170167929
H           -5.35391223915216        1.03418765455485        1.46530283145438
C           -5.63166253302688        1.92425413207597       -0.49531172238707
C           -6.53054587779309       -0.27902843984343        0.24858372514627
H           -4.73810289459798        2.55099752656678       -0.46821779924062
H           -5.75820431005958        1.53612589939871       -1.50555776726887
C           -6.86170713973698        2.75085922768355       -0.10721497894943
O           -7.00410727213777       -0.83558825313538        1.42929885407498
H           -7.70095334825685        2.06856762459051        0.06897169365576
C           -6.61753904578933        3.57341671839155        1.15668903731655
C           -7.23830947153621        3.67559687644201       -1.26266112412601
H           -5.79298172442714        4.26609458117882        1.00087800905604
H           -7.50523469615984        4.14916064667315        1.40847290575869
H           -6.37601902080812        2.94136875223063        2.00809483357065
H           -7.47616461254319        3.09571696217982       -2.15055233470099
H           -8.10688059734539        4.27613671804715       -1.00267412732021
H           -6.41345395264984        4.34556799209200       -1.49618321721466
N           -6.94507420826794       -0.59117227751310       -0.88510616087951
H           -8.75109439361117       -0.83463216095728        0.93916453429609
C           -7.95467738545948       -1.55671113894076       -1.22198058678293
H           -7.91947578717494       -1.64058042463983       -2.31439437473862
C           -7.74146131337812       -2.94571504215001       -0.60408038686337
C           -9.36990014623271       -1.07477070507216       -0.86558433767391
H           -7.82860862609703       -2.91857867551988        0.47998857239750
H           -8.48182533561397       -3.63568231415211       -1.00140230521611
H           -6.74771623135081       -3.30581101282300       -0.86197253686449
O           -9.56166425992723       -0.72754915897123        0.40682762149901
O          -10.25556448009428       -1.03487862611353       -1.67059428639671
