42
 energy: -62.486133505818 gnorm: 0.000480988113 xtb: 6.7.1 (edcfbbe)
N           -1.20358190110239       -0.59887816824625        0.53174449340595
H           -0.36714401283869       -1.10255654592308        0.26211256667369
H           -1.37552381077797       -0.79868311863373        1.51358060825985
H           -2.00929746242638        1.14895406207806        0.40675863753992
C           -2.35136421381029       -1.03040107117804       -0.26548775810425
H           -2.03810671346888       -1.01246328243724       -1.31797841413797
C           -2.88559622480305       -2.41840635807161        0.07797873323001
C           -3.42913408502393        0.03500075097458       -0.11236760956553
H           -3.16655526418676       -2.46059957408310        1.12808310744035
H           -3.76946763827972       -2.62090437430505       -0.51677566860150
H           -2.13144689215336       -3.17747162050481       -0.12024221458472
O           -2.96796161472363        1.25027782163015        0.23799188128869
N           -4.62799980995212       -0.27670008162006       -0.31255721810268
H           -6.67242263549280        0.31787525992765       -2.46456483002890
C           -5.73201432562409        0.65863555970810       -0.22385310202955
H           -5.86470149807254        0.93277995932741        0.82952895468667
C           -5.55223579088029        1.93329257593062       -1.06040586199743
C           -6.93605801177294       -0.16763908665417       -0.63325039198434
H           -4.71166756388427        2.48913406816788       -0.64336978399852
H           -5.27009854498454        1.66122090815277       -2.08467562106518
C           -6.78804115436885        2.84273082159718       -1.08220262681480
O           -7.26734876114907       -0.22928559903530       -1.93693302781015
H           -7.65750501357626        2.27658458351677       -1.43537675171149
C           -7.10838948257538        3.38164758877494        0.31009583242657
C           -6.54501057815650        4.00070724593188       -2.04976901701366
H           -6.24107201218361        3.88571260063970        0.73102285090607
H           -7.92700082192353        4.09548169201481        0.25503000420129
H           -7.40662777438238        2.58028935746180        0.98107287941850
H           -6.33998225402743        3.63550385323882       -3.05433576932885
H           -7.41783150467627        4.64733975752373       -2.09528386443220
H           -5.69494373726013        4.59465774031541       -1.72105921042687
N           -7.51562974471151       -0.85077508293527        0.25130531681551
H           -7.81403302915199       -1.23459063788352        1.98867228943314
C           -8.59948012940931       -1.75458074718496       -0.06303461090058
H           -9.33883939268480       -1.29228818299430       -0.72887651321562
C           -8.08734367019204       -3.04602647265849       -0.71111519362310
C           -9.28244668814052       -2.11877923056152        1.26334659615104
H           -7.31781522167587       -3.49231601685657       -0.08458273935069
H           -8.91156971680717       -3.74523906383762       -0.82004081344148
H           -7.66470771823136       -2.82676443834440       -1.68796159667366
O           -8.59987101651666       -1.72363702205195        2.33138797431144
O          -10.31832381833757       -2.72086626370653        1.32532257858048
