42
 energy: -62.486133516583 gnorm: 0.000479488232 xtb: 6.7.1 (edcfbbe)
N           -0.96161003616267       -0.63061447332852       -0.16194850563204
H           -0.13925241460945       -0.83669782546781       -0.71640199256873
H           -0.99369207683087       -1.30694828563757        0.59642209589586
H           -1.88396578703329        0.86752750703874        0.66161209276429
C           -2.17578260909153       -0.74402484671560       -0.97183490423820
H           -1.99942607392450       -0.18456561067355       -1.89967243269800
C           -2.59353152817130       -2.17074958740643       -1.31603302488678
C           -3.28385021413511       -0.01284694812535       -0.23171427811813
H           -2.69211195742800       -2.76007342597615       -0.40666171283934
H           -3.55944949449650       -2.14460115171117       -1.80853930755727
H           -1.85851549049835       -2.64053908825222       -1.96630298078549
O           -2.85911034925357        0.93267538831465        0.63593565098831
N           -4.48151389639061       -0.30044918437109       -0.46676429179386
H           -7.47235251462445        0.50136806430119        1.64573443590121
C           -5.55988739443081        0.40912179039750        0.16721964188416
H           -5.33693758876309        0.60863542698630        1.22859620433232
C           -5.76446837192366        1.74680157902891       -0.58058725005161
C           -6.80625121938097       -0.43345319936959        0.06281350414203
H           -4.81885746828023        2.29087643951062       -0.53080888197022
H           -5.95355034806685        1.48979412893789       -1.62463159934508
C           -6.88701137155668        2.65332919738018       -0.06626595289960
O           -7.77451340993054       -0.17441266829718        1.02669296705425
H           -7.82703680152144        2.09207569416277       -0.03309145098366
C           -6.57754185688637        3.21268674883950        1.32248501094438
C           -7.08121816015880        3.80807464901762       -1.04867878436918
H           -5.68307081155950        3.83062341307847        1.28291281972885
H           -7.40284323509800        3.82766960621350        1.67495429629312
H           -6.40476439610330        2.42816384282953        2.05733820596555
H           -7.35708862534275        3.43181100631878       -2.03051251073811
H           -7.86934844720263        4.47281427406970       -0.70280007095544
H           -6.16304765520317        4.38359002219497       -1.14505875961451
N           -6.91765198836875       -1.29353558352398       -0.83168513237822
H           -9.18941838116668       -0.31852158856114       -0.08275780047650
C           -8.02330418947256       -2.18330148263168       -1.06560365014884
H           -7.68216685295723       -2.86907422344233       -1.84974231480756
C           -8.45113429656957       -2.99979718474503        0.16235265293101
C           -9.25750446950592       -1.45933812393210       -1.62594342724988
H           -8.84121117792389       -2.36008915807778        0.95102771627369
H           -9.21882536877096       -3.71356807977951       -0.12617409465755
H           -7.59117594363130       -3.54141424278191        0.54949939807124
O           -9.72276036480620       -0.44995159655567       -0.88977928700260
O           -9.78943660969570       -1.79109728622090       -2.64666723582136
