42
 energy: -62.486133516529 gnorm: 0.000479611710 xtb: 6.7.1 (edcfbbe)
N           -0.81733293777403       -0.38660445299812        0.36314503279061
H            0.11220059849162       -0.40111630867228       -0.03773263189236
H           -0.88218071677444       -1.16587451277120        1.01236199321492
H           -2.03531715218815        0.83903472846610        1.19259625665569
C           -1.84045588904028       -0.51209388013917       -0.67305496145690
H           -1.55834443186659        0.15298410541209       -1.49818985710986
C           -2.02979869253049       -1.92780447526960       -1.21533895074622
C           -3.13674690310480        0.04154401224254       -0.09700484084300
H           -2.27003235504883       -2.61388879704248       -0.40448971851289
H           -2.84433282581690       -1.93411628179116       -1.93186603698250
H           -1.12072104265355       -2.27101833521547       -1.70431976604088
O           -2.99053673889311        0.83173628292616        0.97661821113818
N           -4.23076943270995       -0.23272691850974       -0.65797428111934
H           -4.97415076515408       -2.01479163838734       -0.02277997620267
C           -5.48407068117596        0.28147476420481       -0.14106327264018
H           -5.36908790971688        0.60836366657927        0.90469060442560
C           -5.96466728746654        1.46722354424874       -0.98819041048531
C           -6.46635666142446       -0.87182737105595       -0.14787850700052
H           -5.09203272933490        2.05971725720123       -1.27104939077522
H           -6.41164434129897        1.07181858544094       -1.90055951484058
C           -6.96772267027093        2.36504666980513       -0.25381687762595
O           -5.93703201167360       -2.08784535728438        0.08656249084539
H           -7.65808151238014        1.72486345322976        0.30276096528823
C           -6.25368203968736        3.29169801630055        0.72884368968033
C           -7.76552655484457        3.19187056002798       -1.26017256870292
H           -5.60560740268923        3.98277280342841        0.19293230263989
H           -6.97670184051549        3.87217702185841        1.29710553796647
H           -5.64278988445720        2.72940019838917        1.43091112362733
H           -8.32416555188182        2.55099878996268       -1.93764865500425
H           -8.47070211828471        3.83895653475070       -0.74434917640992
H           -7.09713747744967        3.81646099166657       -1.84946196126762
N           -7.68308014281618       -0.67470353602061       -0.40212235687162
H           -8.94821187453328        0.36059906164096       -1.18878304674671
C           -8.63934368028238       -1.75670594013691       -0.43739095652624
H           -8.21820447655442       -2.66461970730580       -0.88815173882673
C           -9.15373262373964       -2.09368812650639        0.96627656259862
C           -9.82630788332214       -1.28198706792478       -1.28876107927577
H           -9.53053919808836       -1.19436979889844        1.44946666800174
H           -9.95746745525462       -2.82058000429613        0.88984101217197
H           -8.34661770993537       -2.50711426758548        1.56613895646344
O           -9.78552985076531        0.01310613507545       -1.57776302455423
O          -10.71162840786059       -2.01039628320750       -1.64140285555575
