42
 energy: -62.486133511452 gnorm: 0.000480052369 xtb: 6.7.1 (edcfbbe)
N           -0.79195968881698       -0.27774815917688        0.30717542155592
H            0.13535222948518       -0.39144787631912       -0.08352999864525
H           -0.88322923903004       -0.93682747757856        1.07553045530112
H           -1.98358997441455        1.14269376962977        0.88611288043166
C           -1.82182994908073       -0.53792719176428       -0.69692600567070
H           -1.54545439615009        0.02502246009563       -1.59840526664432
C           -2.00318534331356       -2.01042668881938       -1.06256284046126
C           -3.10911896774832        0.08237678250560       -0.17584215317945
H           -2.31807910969258       -2.58044313708472       -0.19058709291681
H           -2.75934064216144       -2.10761799130642       -1.83452452098954
H           -1.06680156429161       -2.42293747996029       -1.43308688813361
O           -2.94123537270168        1.08808823014889        0.69318271794028
N           -4.22361403651388       -0.34022350823260       -0.58130631202493
H           -5.10060285591315       -1.93020623880688       -0.74847975646135
C           -5.46717400899473        0.24996344094230       -0.12006227127902
H           -5.41266682941574        0.48881736769290        0.95029567049627
C           -5.69303991672840        1.55186056984827       -0.91145251294935
C           -6.53373816566594       -0.81242627285594       -0.32471849297573
H           -4.84871077017532        2.20343806894093       -0.67188333442132
H           -5.63459408812090        1.30608644040062       -1.97459773241773
C           -6.99221306180830        2.31589087995136       -0.64839741726383
O           -6.06478513001868       -2.03692321183324       -0.60469326876956
H           -7.82067613535957        1.74014916801920       -1.06525633335201
C           -7.23767817534158        2.53711124890925        0.84105818892695
C           -6.93259346791650        3.65895448960561       -1.37582575469436
H           -6.38889317149442        3.04563504140752        1.29439138799077
H           -8.12251167117219        3.15219277336040        0.98640645874648
H           -7.39211235889615        1.59049120766037        1.35167539441624
H           -6.74796005340388        3.51500500134682       -2.43783599167782
H           -7.87396652165040        4.19047253807576       -1.26193743375966
H           -6.13648055014437        4.27965052943482       -0.96913357720074
N           -7.76196221331618       -0.52762124114923       -0.27792432674577
H           -9.18401291279590        0.62657106083478        0.02167415064737
C           -8.76482168906684       -1.55024635646061       -0.48978228103707
H           -8.55596577800966       -2.14043313041166       -1.39071007611178
C           -8.87922304311726       -2.50358190850096        0.70691564567519
C          -10.11669773014567       -0.84507470896635       -0.65120871068658
H           -9.05469259961914       -1.93632279670888        1.61934915275422
H           -9.71050275390040       -3.18432416329347        0.54591130601691
H           -7.96038756189484       -3.07415677060448        0.81375292230186
O          -10.11051058693467        0.41575148518802       -0.23338265506290
O          -11.09493140564185       -1.39133211108145       -1.08044373471525
