42
 energy: -62.486133512057 gnorm: 0.000479922707 xtb: 6.7.1 (edcfbbe)
N           -2.08216439571584       -1.81770481635550        0.87716165171459
H           -1.33848468634808       -2.22970079370112        0.32607793116012
H           -2.66885923241560       -2.57637808425586        1.21479360664501
H           -2.40851632304569       -0.57299876327565        2.28701281524816
C           -2.88348754657975       -0.89784526975399        0.07422020327776
H           -2.18807476725732       -0.20039689805499       -0.41190860588144
C           -3.74643544984569       -1.57086687879206       -0.99164770644760
C           -3.72054363551234       -0.04032693367221        1.04847506679492
H           -4.21166986060328       -2.46640035347695       -0.58909161216459
H           -4.53106777765402       -0.89124736774539       -1.30842052742769
H           -3.14585470103788       -1.85189883025629       -1.85435185929671
O           -3.17878144919007        0.03203248108055        2.28559500428681
N           -4.74648956115271        0.56378131057649        0.75078695959966
H           -8.32924257103939        1.60972784180342        0.16199230118830
C           -5.92220885476160        1.21545611295101        0.39454916034199
H           -6.22133226230019        1.95062443739891        1.17092425363475
C           -5.69220736775732        1.95595252324750       -0.94902920526435
C           -7.03587142335727        0.19267878125090        0.29314905720140
H           -4.77190556077818        2.53085202730300       -0.82320823144724
H           -5.50195458216184        1.19935938153213       -1.71354076524731
C           -6.79279904219453        2.89978489414961       -1.44953810662204
O           -8.29905498878129        0.64524361440330        0.14144685223812
H           -7.70207153545529        2.32635849364646       -1.66327473020630
C           -7.11092270850817        4.01159928239044       -0.44973735215854
C           -6.33426855812424        3.52447568211958       -2.76858741757173
H           -6.20898431109782        4.57328650977142       -0.21758785716957
H           -7.83893669672956        4.69863100562881       -0.87557309301902
H           -7.51898449409924        3.63275360530582        0.48538514176470
H           -6.11057062989335        2.75452835365622       -3.50282697883393
H           -7.11039956490785        4.16884686095360       -3.17450487076594
H           -5.43894904323319        4.12212074377449       -2.61400715913765
N           -6.75437464729151       -1.02521018432541        0.42003983406649
H           -5.60042195012210       -2.15785559682605        1.12098203453996
C           -7.72850757850175       -2.08580128013233        0.38144003876542
H           -8.61600673436313       -1.85119208624065        0.98284852222011
C           -8.17056254396157       -2.40579345139500       -1.04868081924358
C           -7.04343666587437       -3.32576723294641        0.98179631466947
H           -7.29796038803644       -2.57992342160664       -1.67418190796170
H           -8.78644218021832       -3.30054103461522       -1.04036433562361
H           -8.74089638175623       -1.57643717280701       -1.45776716253257
O           -5.77670432042548       -3.11301178696091        1.32034487777683
O           -7.59584076117926       -4.38192402878611        1.11355058875489
