42
 energy: -62.486133510202 gnorm: 0.000479776742 xtb: 6.7.1 (edcfbbe)
N           -1.71328772381278       -0.37220648047355        0.58625723497842
H           -0.98107937811364       -0.94575971979203        0.99274752023866
H           -2.24693927248969        0.03794976465369        1.34579118028507
H           -3.13936008731255       -0.35145353081568       -2.45697155180396
C           -2.60104137931696       -1.19605137418427       -0.22019856615799
H           -2.03361962152764       -1.50308630473979       -1.11198062579616
C           -3.12710126976976       -2.44823230977570        0.49583683018759
C           -3.77335115010474       -0.33052485635823       -0.63437837478514
H           -3.72578264467547       -2.14633793837692        1.35097600165640
H           -3.74977310509250       -3.03669472855580       -0.17341795038119
H           -2.29555045691822       -3.06465839194162        0.83188263898174
O           -3.90081723493919       -0.03388107806697       -1.95651247924560
N           -4.57159674753945        0.03501702246336        0.26140763448301
H           -6.48566320349485        0.53204095187901       -2.28893206862309
C           -5.73434016028039        0.87095928328780        0.03297373880374
H           -6.04821555533059        1.16573110423051        1.04133876005599
C           -5.49562863088893        2.12921174558914       -0.80584014451822
C           -6.80308154528290       -0.06667785195880       -0.49670808569645
H           -4.66110599420054        2.66937458263688       -0.35227443830469
H           -5.17856594686549        1.86386174945055       -1.81801842981487
C           -6.72219555095350        3.05066064041966       -0.87360163380300
O           -7.05111007834901       -0.09519692596640       -1.81905603304131
H           -7.61251301974367        2.45076123430993       -1.09629636098355
C           -6.95381146874784        3.77393413451434        0.45096223761193
C           -6.53359637120575        4.07156418646694       -1.99559629680959
H           -6.08334746283335        4.37173939176627        0.71306862261676
H           -7.81223278653762        4.43670984699899        0.37054938257303
H           -7.14629070155433        3.07060533924352        1.25664376863753
H           -6.42573273803428        3.58039457797752       -2.96085463318039
H           -7.38980669719511        4.73938345154543       -2.04940274496025
H           -5.64348140390937        4.67032885410537       -1.81428216762633
N           -7.33377988775632       -0.86704754588476        0.31817981712422
H           -7.67240073763353       -1.37156969668267        2.02327591966019
C           -8.26800605886658       -1.88637489732408       -0.10124800176462
H           -9.03417045453458       -1.48677840432334       -0.77738955236824
C           -7.55785728094732       -3.05582129078658       -0.79322300580236
C           -8.95284454640179       -2.42072173320289        1.16625936150065
H           -6.76061287353463       -3.43179986585694       -0.15465026236730
H           -8.27397688843071       -3.85175752612669       -0.97695241306546
H           -7.13228935236173       -2.72620080505281       -1.73772670840186
O           -8.39462717173044       -1.98877839217503        2.28958445894818
O           -9.88560660917055       -3.17464196141794        1.13671269250837
