42
 energy: -62.486133507560 gnorm: 0.000480055791 xtb: 6.7.1 (edcfbbe)
N           -0.88742090594613       -0.34544099764571       -0.15920680609850
H           -0.07776696657013       -0.64894956125472       -0.68606941406731
H           -0.80182542001730       -0.72636493869512        0.77912069612050
H           -1.88829923133813        1.26798327948263        0.18295359110502
C           -2.12455572157533       -0.82092657710341       -0.77840152966728
H           -2.04519660399778       -0.63117226215257       -1.85626165493089
C           -2.42859403190820       -2.29969192360926       -0.55126284671836
C           -3.25506754247262        0.06304084849599       -0.27086402449889
H           -2.45862497896288       -2.51735754867104        0.51491345323969
H           -3.39903015986118       -2.53154120004379       -0.97657771892873
H           -1.66842148713302       -2.92304269213385       -1.01763692902839
O           -2.86643847598926        1.25953823815640        0.20937120004619
N           -4.44060433132305       -0.34764874399168       -0.33437653522008
H           -6.15355972136639       -0.89086778583560        1.95769702437917
C           -5.54860127919410        0.49151597824729        0.08258124020625
H           -5.34401041399559        0.92282058175757        1.07510950279986
C           -5.78589945316760        1.62629808106015       -0.92192203656113
C           -6.74021433848842       -0.43350660105549        0.16185204927202
H           -4.87044484259686        2.21781427444013       -0.98043839459595
H           -5.96944716877460        1.16208222383285       -1.89077970408282
C           -6.96204418597366        2.54290858155440       -0.57322627358875
O           -6.90667752695269       -1.06693469841786        1.38148335623246
H           -7.86856795607075        1.93419257601609       -0.50328662698611
C           -6.74994084699733        3.27331277445221        0.75157568736278
C           -7.15118375895920        3.55664739116460       -1.70033119742591
H           -5.79240023960300        3.79068176837542        0.75170529994284
H           -7.53721662167022        4.00814451833960        0.90334182968651
H           -6.77326641984008        2.58657754432329        1.59435739197679
H           -7.31981365412663        3.04721841984892       -2.64544183476592
H           -8.00750444094136        4.19564275008157       -1.49855061164201
H           -6.26825388924758        4.18534711226719       -1.79818588109218
N           -7.46099061767102       -0.62458318360013       -0.83845356822939
H           -8.72124538483760       -0.96990346313167        1.39019804378385
C           -8.57669846981918       -1.52694122330018       -0.95378362892989
H           -8.84382542937491       -1.52140125584094       -2.01694548657744
C           -8.27632536716630       -2.96814365252484       -0.51946899227394
C           -9.81397492699043       -1.02986269731496       -0.19050901346784
H           -8.07674115627482       -3.03051355510392        0.54798404381902
H           -9.12612861271406       -3.60286818583681       -0.75819448834742
H           -7.40157713180625       -3.32789831509742       -1.05636568375190
O           -9.63812976904195       -0.79252778548889        1.10937326959034
O          -10.87966178392548       -0.88570390909877       -0.71814172335063
