42
 energy: -62.486133506837 gnorm: 0.000480663671 xtb: 6.7.1 (edcfbbe)
N           -2.18310418674668       -2.48021360607173        0.33953819847105
H           -2.60266353096040       -2.85724065207286        1.18338070252418
H           -1.20760932414118       -2.75358698657821        0.32939896033392
H           -3.71001729601574       -2.42110904125031       -0.85434647079007
C           -2.31335128509186       -1.02451470277840        0.30898618690328
H           -2.09479250086667       -0.53376148127919        1.26694024126490
C           -1.39599508272100       -0.44814934561031       -0.77063680933632
C           -3.75340790316235       -0.71599166272987       -0.06827925822796
H           -1.60503247838444       -0.91656596827471       -1.73044073666331
H           -1.55900927564560        0.62235571480684       -0.85298109429384
H           -0.35355740139131       -0.62665745951739       -0.51625924510884
O           -4.32792433178794       -1.66210644009368       -0.84145497008425
N           -4.26191562447367        0.35850856096470        0.32513139737196
H           -5.89627720556564       -0.49797286687200       -2.02795784063977
C           -5.59039465173085        0.85019482673342        0.04686501146699
H           -5.90621235297651        1.32112401329515        0.98358733158520
C           -5.48243859509262        1.92846081829038       -1.04662892434825
C           -6.64913752401404       -0.17781821582958       -0.29886890817090
H           -4.78096057606855        2.68399001384650       -0.68837201929845
H           -5.04328581539636        1.48442310386910       -1.94648473556567
C           -6.81587557605727        2.59270907214778       -1.40843580593098
O           -6.70269313584553       -0.69845217071866       -1.53655010460781
H           -7.50610207937133        1.82868505562529       -1.78298027640472
C           -7.45848435826056        3.26875363751961       -0.20010035077412
C           -6.58133383283054        3.61439895961491       -2.52053308305811
H           -6.75956439119916        3.96029473529107        0.26533774659610
H           -8.33811866382676        3.82741337508680       -0.51097344219244
H           -7.77056237583908        2.53483710978807        0.53784970514879
H           -6.13431971878797        3.14458016573397       -3.39422936424464
H           -7.52168529312961        4.06875123235550       -2.82240457516010
H           -5.91505825773056        4.40214074703304       -2.17539931849055
N           -7.49646339021794       -0.45591027958113        0.59408065151444
H           -8.28214266361285       -0.09598794739954        2.18014305025675
C           -8.56204564078873       -1.40531409180963        0.35888024690565
H           -9.05241593308831       -1.23523235549289       -0.60789014601939
C           -8.05387621160796       -2.85065065841782        0.40777232883252
C           -9.59535515133488       -1.21393458712722        1.47805805869876
H           -7.53417600095128       -3.02783081837355        1.34752618610086
H           -8.89746261643545       -3.53089503433296        0.33269324549520
H           -7.36757467749914       -3.02854807657375       -0.41627164566306
O           -9.17746459223724       -0.41075082664912        2.44973304687523
O          -10.66632976849094       -1.75445160986663        1.48151183778787
