42
 energy: -62.486133505526 gnorm: 0.000480791662 xtb: 6.7.1 (edcfbbe)
N           -0.99274685020372       -0.58874254632949       -0.75049914568641
H           -0.27086456328731       -1.27458210880799       -0.93496511048963
H           -0.66643353940603        0.00012958514012        0.01081201719444
H           -2.11922107718395        0.61278187258281       -1.70919994052189
C           -2.24605169210345       -1.23847025273897       -0.36774730047333
H           -2.43004966821244       -2.04011730888157       -1.09516420020391
C           -2.25986916283667       -1.82557164065420        1.03995806974433
C           -3.35883634953995       -0.21194030039753       -0.56343621358645
H           -2.04484514765249       -1.04968464689695        1.77121155982908
H           -3.24385212347167       -2.22883504871098        1.25114227320419
H           -1.51679483480422       -2.61534980128945        1.13009871399149
O           -3.06390220815312        0.73587117205604       -1.48093706464975
N           -4.42655566552941       -0.35340762543503        0.07639676597680
H           -5.66595095765223       -0.27891115481011       -2.23704280690678
C           -5.60384232420242        0.48059794564632        0.03618137155036
H           -5.89114710389533        0.60359837177275        1.08566281512443
C           -5.50567005695479        1.85823565952003       -0.63761410195114
C           -6.67900588719175       -0.35964650363360       -0.61995755178137
H           -4.75445552144382        2.44597290192595       -0.10618969553907
H           -5.15815705203982        1.74804629765484       -1.66738702662968
C           -6.83851400046310        2.61752033254847       -0.65032028132725
O           -6.48883280159899       -0.67220845698211       -1.91729073268049
H           -7.59538925944084        1.99105745864407       -1.13633765087971
C           -7.32422525764183        2.95000490245916        0.75796316552100
C           -6.67863740945232        3.90014744800205       -1.46568971759933
H           -6.56088342110336        3.50146868526818        1.30295943138738
H           -8.21943547638683        3.56501752483401        0.70663392804161
H           -7.56944272330550        2.04810459372352        1.31155753817770
H           -6.36081509992772        3.67784795254205       -2.48215735620562
H           -7.62111359775941        4.43999493404767       -1.51387190654098
H           -5.93458153885236        4.54866925925612       -1.00787628964649
N           -7.67131118625881       -0.74311506114240        0.05101004939033
H           -8.74970548944881       -0.57151721438927        1.50779291493277
C           -8.71839673032223       -1.55108747457152       -0.53436023241346
H           -8.97458846539703       -1.22107571425001       -1.54897184622413
C           -8.32116280842721       -3.03070771043692       -0.58021542227580
C           -9.95667914837050       -1.41116971125891        0.36268397830986
H           -8.02815723150157       -3.36642797390850        0.41235352334101
H           -9.16758468544778       -3.61953975144330       -0.92216336700182
H           -7.48474834562943       -3.16723899059135       -1.26095875427822
O           -9.70201533020180       -0.82331492202745        1.52573405118730
O          -11.04171946254977       -1.81443075415631        0.04913661324600
