42
 energy: -62.486133513283 gnorm: 0.000480114370 xtb: 6.7.1 (edcfbbe)
N           -2.11631978705279       -0.34711495418610       -1.62996017131700
H           -2.24275200744712        0.62051771625137       -1.90946589654613
H           -2.03676718487480       -0.90553216099783       -2.47327526017266
H           -1.27641952664422       -0.28431494728641        0.18572685315124
C           -3.24343099167690       -0.80437148368960       -0.81419206832512
H           -4.22099163289380       -0.59144052587898       -1.27174992395089
C           -3.09071588383838       -2.31122846429053       -0.59547497045649
C           -3.10285901582353       -0.03906085055141        0.50948992868066
H           -2.16430591168931       -2.52379281628021       -0.06549389927375
H           -3.92407839383359       -2.71174207236178       -0.02673271346302
H           -3.06232834668112       -2.81902852865211       -1.55792930913769
O           -1.83455868288644        0.00967639594536        0.93233783831290
N           -3.95287873534027        0.60442356917011        1.18146430407007
H           -5.05453422992586       -1.54456678130207        1.79534734814126
C           -5.37923901087139        0.66277013772937        0.98566441882078
H           -5.79648677730077        0.78616772763127        1.99654077662352
C           -5.72070628211294        1.91185193577468        0.15700019468552
C           -5.98362898466812       -0.59736402992327        0.41180834106665
H           -5.05138184100319        2.71092070096147        0.48072345961357
H           -5.50257588578852        1.69212264002863       -0.88966338188097
C           -7.17468172060414        2.37843831250589        0.29415086838155
O           -5.67246658468970       -1.73677764638853        1.07621576240795
H           -7.82736490035594        1.50269431089331        0.23511240109874
C           -7.41007091298077        3.07897470908059        1.63040633818884
C           -7.52052829642881        3.32546776890714       -0.85403368283855
H           -6.78165186528330        3.96343508603686        1.70993348542529
H           -8.44912648997715        3.38855009952038        1.71506781312965
H           -7.18486538688112        2.42381253902743        2.46792616521031
H           -7.40743453152447        2.83211503898928       -1.81673400286020
H           -8.54847370334392        3.66856567583423       -0.76647706721287
H           -6.86757885988153        4.19557011154039       -0.83456959816176
N           -6.77874043097100       -0.55959900804056       -0.56116249341900
H           -7.39255404662095        0.32168125877304       -2.05796559898104
C           -7.38157826333651       -1.74515334741493       -1.12247822166414
H           -6.73995870676473       -2.63030157346804       -1.03479442245824
C           -8.73181191119443       -2.03460210011388       -0.45709687207144
C           -7.63874750587063       -1.44771567596208       -2.60705041039503
H           -9.37532800461866       -1.15932583840998       -0.52197814638175
H           -9.21173135908316       -2.86824370114836       -0.96199773564717
H           -8.58052628024042       -2.28587878652498        0.59007339316085
O           -7.62974908704115       -0.14884642703933       -2.88974861470345
O           -7.84419912457058       -2.30090124717220       -3.42321116905132
