42
 energy: -62.486133514430 gnorm: 0.000479458657 xtb: 6.7.1 (edcfbbe)
N           -1.62711793825302       -1.45893197765557       -1.07041949966088
H           -0.96188668671041       -2.21043983526723       -0.93579936037038
H           -1.09675986893673       -0.60258939534581       -1.20793388591902
H           -3.18056737129841       -1.10734457005055       -2.08369764342775
C           -2.50294198963988       -1.31748500558339        0.09347295419639
H           -2.82515408142237       -2.32481847326024        0.38631293176679
C           -1.86394608680602       -0.62451610528055        1.29352524748990
C           -3.75599799903592       -0.58615482035072       -0.36900740456264
H           -1.50804212454218        0.36381357443988        1.00907639543571
H           -2.60598781826612       -0.50839441946955        2.07567255765864
H           -1.02669089404059       -1.20862145934702        1.66986289562085
O           -3.95438528213074       -0.63420361717694       -1.71017843568342
N           -4.48283594569797       -0.01564188721673        0.47717107303702
H           -5.81497619501309       -0.10365860910682       -2.17335684757136
C           -5.72752029888881        0.66686836030757        0.18267598005541
H           -6.14171371750425        0.90721457641678        1.16692702803924
C           -5.48541362367684        1.96371706009935       -0.60609560790440
C           -6.73112403816702       -0.23941045577925       -0.50188075082281
H           -4.82942112328974        2.59587452596346       -0.00328012559675
H           -4.94863165967639        1.73197448857822       -1.53102758588349
C           -6.76545204610683        2.73549965596258       -0.94694153743501
O           -6.65685291952409       -0.43646343540266       -1.82695090494366
H           -7.41937436560600        2.09512113392113       -1.54921076210272
C           -7.52744319819868        3.15339504508137        0.30820463182863
C           -6.40234925243654        3.96647086862413       -1.77692268133076
H           -6.87688310106194        3.70638125604636        0.98243852499798
H           -8.36480397570783        3.79298850682853        0.03911663192660
H           -7.92114022832491        2.28733972389712        0.83325773067441
H           -5.87245703099839        3.68229263523993       -2.68384425898411
H           -7.29919625244676        4.51010175244905       -2.06318438664532
H           -5.76524069213394        4.63529959144163       -1.20188802934743
N           -7.59526170928167       -0.79912525473443        0.22770896619135
H           -8.47323297958564       -0.92735837062558        1.80416828621140
C           -8.58320836457544       -1.70291104759610       -0.31916190173523
H           -9.04136651720586       -1.30036991880909       -1.23138729505343
C           -7.98772336336056       -3.08022139475781       -0.63239112940627
C           -9.67607467014746       -1.87748578119620        0.74567790869150
H           -7.48379281439155       -3.47412105932850        0.24815941289379
H           -8.78635556705672       -3.75806672524346       -0.92029850477774
H           -7.27104411347915       -2.99871816987191       -1.44573485842120
O           -9.35676297551792       -1.35036479971119        1.92130179129479
O          -10.70813722366884       -2.45240485638395        0.53635084353863
