42
 energy: -62.486133513792 gnorm: 0.000480010311 xtb: 6.7.1 (edcfbbe)
N           -1.31182401869817       -1.98897518893039        0.29402974714528
H           -1.44543885354236       -2.28877472242958        1.25434900602102
H           -0.31818367626282       -2.00853289135594        0.09655652360478
H           -2.88620909221094       -2.55188161592206       -0.59433949786751
C           -1.85742534675737       -0.64763219019676        0.08938691578115
H           -1.67533254635321        0.04118310103225        0.92444295175536
C           -1.28116896987874       -0.04622019314170       -1.19293651326701
C           -3.36315919125984       -0.79940691791004       -0.08864340356404
H           -1.45771337054828       -0.71418366689593       -2.03372843417098
H           -1.75687866527176        0.90901421235433       -1.39321076356637
H           -0.20938120499399        0.10928803889627       -1.09014935693153
O           -3.70733156778981       -2.01255938123383       -0.60247990003283
N           -4.09684363256365        0.16593984548671        0.19648264090237
H           -5.34937545902817       -1.80217609720078       -1.11670378629910
C           -5.50330918922698        0.42846863863903        0.11040517053632
H           -5.75920606888819        0.89130661779008        1.06890224037944
C           -5.64970845813348        1.49876494135715       -1.00356735837823
C           -6.54109768840100       -0.64923653178148       -0.14846972366491
H           -4.83003279083729        2.20715716125968       -0.86842232005724
H           -5.50594262515155        1.00177882857819       -1.96716025834852
C           -6.97748959492029        2.25987966173912       -1.02164377960649
O           -6.30320979361571       -1.67936094349282       -0.96531601361134
H           -7.79948713341104        1.53949910783929       -1.05878816825893
C           -7.14933040590852        3.13294994395242        0.21813833865659
C           -7.04100199632993        3.12644771885192       -2.27916184711863
H           -6.34577405759773        3.86398779957971        0.28116086619426
H           -8.09606328180926        3.66481100094085        0.17034043137989
H           -7.14571706427872        2.53579498017933        1.12551240503682
H           -6.95628137165568        2.51662796926225       -3.17583181510688
H           -7.98597978260117        3.66194393500693       -2.31993486367123
H           -6.23285089714243        3.85527445468756       -2.28075991906508
N           -7.68357707664524       -0.43056725878383        0.35102699621281
H           -8.87323822227748        0.73778004991772        1.05566582536386
C           -8.80263181835919       -1.30669348235397        0.08292985073320
H           -8.83580275777061       -1.61870080298037       -0.96915658445017
C           -8.76842493642628       -2.55843547823213        0.96654033976831
C          -10.08211920454480       -0.52045358626900        0.40211160056826
H           -8.68726055846524       -2.27120531383244        2.01306175897855
H           -9.68416283054154       -3.12457180405079        0.82157094371145
H           -7.91446341666674       -3.17641807669799        0.70039068698728
O           -9.85381956967250        0.64530718303077        0.99557306136175
O          -11.18194306211798       -0.92924476747229        0.15076084832668
