42
 energy: -62.486133067912 gnorm: 0.000561469958 xtb: 6.7.1 (edcfbbe)
N           -1.31380903335645        0.07126395785161        0.46855497455186
H           -0.48305486157459       -0.36674253427555        0.85214719437358
H           -1.98736270181042        0.19437751303681        1.21745337595424
H           -2.88703023744930       -0.25361904959622       -2.74702124929578
C           -1.90048264688855       -0.76970943910978       -0.55592957780786
H           -1.28058651552907       -0.66684616135491       -1.46009188532479
C           -1.98684453218851       -2.26076217873752       -0.18003497567904
C           -3.30323494981334       -0.28082344361655       -0.84121635772144
H           -2.60028983229506       -2.37302262226332        0.71081049659595
H           -2.43228260143185       -2.84088189230242       -0.98544578606520
H           -0.99142248828814       -2.65217752278893        0.01919531836042
O           -3.65412580837683       -0.16628319988048       -2.16796945679892
N           -4.06098871338824       -0.06134925369257        0.12639483817328
H           -5.26590093177079       -0.95490783086312       -1.93849742994638
C           -5.42287001930819        0.41077046338882        0.12015152775535
H           -5.68290793921027        0.54530578789618        1.17352715973490
C           -5.53731026580474        1.76547462442702       -0.61475594198639
C           -6.42588257516787       -0.55914779467163       -0.46823611774751
H           -4.74265942002804        2.41064203698063       -0.23184939478169
H           -5.34772253994377        1.60019394606097       -1.67853923412314
C           -6.88731896637101        2.46967527745998       -0.45080791788963
O           -6.10509012906996       -1.26560464104097       -1.56136572018802
H           -7.68398203769633        1.77921571596124       -0.74445922040406
C           -7.13067245110399        2.90817113657866        0.99090869962385
C           -6.93557509733513        3.68413090700723       -1.37769030926491
H           -6.34152059864618        3.58115460942226        1.32064755513725
H           -8.08108707265199        3.43069959270542        1.06469103950547
H           -7.16345673592379        2.05569186331770        1.66352431287470
H           -6.79595344664431        3.38747717388886       -2.41502076738313
H           -7.89660344634536        4.18495365452450       -1.29329252906069
H           -6.15395013154791        4.39414353796592       -1.11446362141892
N           -7.56690047754129       -0.60334373316696        0.07016504140101
H           -8.84749861709852        0.23658169575083        1.06128130487633
C           -8.62176339683228       -1.43535731543159       -0.46132053114092
H           -8.61807803760736       -1.45739704543761       -1.55920226749864
C           -8.51336605463134       -2.87201166489922        0.06140895987956
C           -9.95524388043747       -0.84381334601285        0.01770355132513
H           -8.47258119200212       -2.86848624360074        1.14875796358197
H           -9.38198589893230       -3.43852797638225       -0.26209489270430
H           -7.61091103284689       -3.33903513400404       -0.32550337317393
O           -9.81592942390691        0.10874006720454        0.93231620881083
O          -11.01995452195282       -1.22083895889388       -0.38589585652964
