42
 energy: -62.486133491887 gnorm: 0.000482946385 xtb: 6.7.1 (edcfbbe)
N           -2.22115958276723       -1.61818311865049        1.50350171946262
H           -1.21662608338864       -1.48954238410057        1.50164774715007
H           -2.41753790189222       -2.51150565519660        1.05986946309594
H           -3.79811192272651       -1.71452190066881        2.56846142799342
C           -2.89430156764647       -0.54564165203897        0.77526609016332
H           -2.43161180584800        0.40289621602877        1.07223714434372
C           -2.81826738283712       -0.69956744407369       -0.74517007121775
C           -4.36662237640559       -0.49952594135229        1.23528719713506
H           -3.28350084024915       -1.63688422219292       -1.04651777293210
H           -3.34395051817364        0.11359357177521       -1.23404032540897
H           -1.78139957330181       -0.69825565218143       -1.07824400151720
O           -4.63977410758073       -1.30344543761149        2.28933906252622
N           -5.23846168188467        0.20942468240400        0.74155787300176
H           -7.98223613540788        1.19629254950273       -1.63170103745418
C           -6.22738977430780        0.92248102637262        0.08348921798824
H           -6.69910862290396        1.60014800902730        0.81537092700222
C           -5.70983185568221        1.77692406309072       -1.10883434037268
C           -7.31016857542200       -0.06545066529539       -0.34122850343095
H           -4.64591927074747        1.95426418537565       -0.94417458968030
H           -5.80077548919887        1.20441166813163       -2.03661929659588
C           -6.40698169366903        3.14010642329936       -1.24855534850141
O           -8.18103053435700        0.30977013213584       -1.30544446561584
H           -7.48385552478839        3.03440399248171       -1.05826864152404
C           -5.85301833436054        4.13063465447033       -0.22599838441779
C           -6.22324498417228        3.68825940536677       -2.66326746999524
H           -4.80375064928531        4.33333096092060       -0.42902342164246
H           -6.39853512348942        5.07034895889254       -0.27127862820543
H           -5.93440425803797        3.73582517591168        0.78381681701451
H           -6.65734576922824        3.01988674617484       -3.40476111475563
H           -6.70139465142584        4.66011690577187       -2.76011603952054
H           -5.16512048587965        3.80473877155437       -2.88690046493427
N           -7.35633835908102       -1.17324318686018        0.24529490472911
H           -6.70613242922945       -2.23897057918714        1.64777464433923
C           -8.32505614392353       -2.19833992976418       -0.04019254879272
H           -9.35087061134755       -1.81076354253986        0.02139504594658
C           -8.12453882478479       -2.83331097945689       -1.42061461847911
C           -8.15576254187038       -3.28884694603263        1.03232596336609
H           -7.09296140714562       -3.16305828180239       -1.52867355197061
H           -8.78376868547317       -3.69140605556813       -1.51613682940911
H           -8.35151244593267       -2.11238312264713       -2.20176424695815
O           -7.14696817127459       -3.09428660621127        1.86485273145818
O           -8.87673341705981       -4.24882933276105        1.08868175586319
