42
 energy: -62.486133510961 gnorm: 0.000480047013 xtb: 6.7.1 (edcfbbe)
N           -1.64526561016737       -1.14414376038503       -0.58735004414579
H           -1.02203166234275       -1.94125944766236       -0.53800761292241
H           -1.16637975317162       -0.35655248075468       -0.15856461099271
H           -2.80605076272849       -0.27644415091188       -1.86096631122436
C           -2.89159250026251       -1.41290850279817        0.13050575124576
H           -3.25274959508047       -2.39375642589058       -0.20555247312975
C           -2.76992536714786       -1.41786971263429        1.65103541503118
C           -3.91687664553311       -0.39400312400810       -0.35097212742022
H           -2.38419699164863       -0.46243269128173        1.99944646262535
H           -3.75072485084770       -1.56978255978545        2.08712906702918
H           -2.10030461333018       -2.21134295560084        1.97653294004165
O           -3.67644749929414        0.08046097832092       -1.59112921132523
N           -4.88864128363587       -0.11563495480578        0.39067904591152
H           -7.16158180416363        0.93865030684417       -2.13861920328222
C           -5.97176754229301        0.78064131877465        0.04482814414376
H           -6.34016318396368        1.13451766721384        1.01742121907199
C           -5.61069020663421        1.99591303688450       -0.81788885937248
C           -7.06955411649667       -0.10428006617491       -0.52846098504779
H           -4.67592961917791        2.40657091625860       -0.42939777331767
H           -5.40064265527612        1.68502063551680       -1.84550510018338
C           -6.68722919631561        3.09431597005604       -0.78744982805080
O           -7.57425679251301        0.15634807713839       -1.74920503827897
H           -7.68315792247766        2.63477008790686       -0.79053265846827
C           -6.56773181494056        3.93851661726772        0.47966231645205
C           -6.56211793481693        3.98888635444843       -2.02062020827989
H           -5.61436113361167        4.46240977441260        0.49628978346853
H           -7.36481378814559        4.67717273878703        0.51917179169839
H           -6.63504469425150        3.31918043681226        1.37054668097093
H           -6.71022282879020        3.42346568474022       -2.93927217043730
H           -7.30410629619540        4.78330658899157       -1.98996854393129
H           -5.57494471008873        4.44457189154269       -2.05635820274156
N           -7.43459649206550       -1.08786889619025        0.16604896496605
H           -7.32177607490887       -1.99565146111644        1.70637095297414
C           -8.42431097422442       -2.04241988663441       -0.27023897529909
H           -9.34862061536371       -1.54730849443753       -0.59390962770951
C           -7.91816147745125       -2.93507609486286       -1.40861759595380
C           -8.73902106513923       -2.93449457417060        0.94289220785414
H           -6.97020523986852       -3.38886476965871       -1.12646756643100
H           -8.64644910512703       -3.71836821289944       -1.59864109988096
H           -7.77565376648616       -2.34607028543077       -2.31054729293657
O           -7.92753281722949       -2.73117060443367        1.97115474127852
O           -9.62036028019535       -3.74904082029208        0.94346297438730
