42
 energy: -62.486133511141 gnorm: 0.000480569653 xtb: 6.7.1 (edcfbbe)
N           -1.34067563908889       -1.59467159082812        0.84538527048875
H           -0.33064153395165       -1.65196342121956        0.80864026757250
H           -1.70608479434393       -2.53212425753209        0.70074751737641
H           -2.74199604346477       -0.87951819909789        1.95189050917345
C           -1.85708651513173       -0.69144756722107       -0.18033082703044
H           -1.23944125024454        0.21501237054514       -0.16339324970292
C           -1.86177210604039       -1.26615735268502       -1.59679040608450
C           -3.25417744524881       -0.26930431878450        0.25338842766290
H           -2.42302703493048       -2.19932516723670       -1.62484491671114
H           -2.32781880785690       -0.55625842296941       -2.27234050688258
H           -0.84494410955332       -1.46247275889012       -1.93014685787698
O           -3.53041252894291       -0.45985249395961        1.55059838658094
N           -4.03775569562885        0.25432718284103       -0.58619714823881
H           -4.87123413675983       -1.47542468067209       -1.14202072855797
C           -5.37666529158227        0.64648851614159       -0.18912618065820
H           -5.40820752642157        0.95650833292607        0.86281467828540
C           -5.75369268476107        1.82593157436618       -1.10410934233746
C           -6.31126286524638       -0.53864992088347       -0.34885642828101
H           -4.99558095275545        2.59590369464563       -0.94310482623298
H           -5.65527305240876        1.48290949650953       -2.13615706967998
C           -7.14110197484889        2.43819620208249       -0.90650978569822
O           -5.78163780339936       -1.66736121703131       -0.85844180077023
H           -7.89195693701626        1.68523363409372       -1.15719146599990
C           -7.36487185871634        2.89970680856806        0.53095878814269
C           -7.30859822170489        3.61660716859131       -1.86531322489199
H           -6.60407058036144        3.62219437551914        0.82036906033895
H           -8.33919935056464        3.37322164967970        0.62397879291474
H           -7.32700673675980        2.06029366949944        1.21967138401921
H           -7.16195520714965        3.30061546636247       -2.89542020325257
H           -8.30746149875877        4.03595277044808       -1.77552794962670
H           -6.58634396816411        4.39878585843847       -1.63996057570659
N           -7.53869928091201       -0.41002394186061       -0.09383881717762
H           -9.00376348419141        0.59703225299546        0.41008696321499
C           -8.46228791235378       -1.50641524620203       -0.28422431062881
H           -8.31989771441743       -1.99326865350393       -1.25753659514277
C           -8.32966259992898       -2.56335353187294        0.81897514293425
C           -9.88242565659453       -0.92894731040171       -0.21711451641275
H           -8.43089776418153       -2.09498258155016        1.79614389360776
H           -9.11061857888558       -3.30884977569853        0.69800212299825
H           -7.35691891068986       -3.04421828869639        0.75534736843801
O           -9.93285799918702        0.30820156004866        0.26145283033371
O          -10.85620720703194       -1.55055772470007       -0.54101859712855
