42
 energy: -62.486133511210 gnorm: 0.000479752933 xtb: 6.7.1 (edcfbbe)
N           -2.28253689544817       -1.58875801055317        1.65947978647639
H           -2.11685261030198       -0.92708862229885        2.41047744721726
H           -1.42847317903351       -2.11191921629852        1.50726010175450
H           -4.14936640194095       -1.95424182935714        1.82221270881722
C           -2.69670029117304       -0.89811826661027        0.44069505797799
H           -2.13392349853213        0.02211345287079        0.23421075252501
C           -2.56936793735585       -1.84498762134179       -0.75315922126649
C           -4.17323774812171       -0.54081142522321        0.59521303026721
H           -3.13399985283107       -2.75618402475137       -0.56747151034645
H           -2.95977842354880       -1.36240733453191       -1.64394319170086
H           -1.52697168282318       -2.10753209607432       -0.92208925075878
O           -4.82835121501476       -1.36099439508018        1.43147081406895
N           -4.58146791657683        0.47062362567915       -0.01840753648417
H           -7.85638261937018        1.20304687223361       -1.68525286041499
C           -5.90180177086298        1.01366257001492       -0.20898577574736
H           -6.15106431562019        1.58018078305948        0.70535847550839
C           -5.77968707586666        2.01511221954811       -1.37571150504303
C           -7.05071898492548        0.02972512835848       -0.37711439375253
H           -4.73108159802768        2.31287957026493       -1.41225910068850
H           -5.98621697731120        1.50685554691059       -2.32235730776195
C           -6.64632787444785        3.27746521078528       -1.22783214296321
O           -8.02489733374303        0.35209370674750       -1.26362654687666
H           -7.62659520565397        3.01725705706455       -0.80702963987000
C           -5.98459963235198        4.26938194689401       -0.27306337287227
C           -6.86498556904039        3.93290575647893       -2.59111652898553
H           -5.04248948227378        4.61982379614810       -0.68849811119990
H           -6.62976111069851        5.12955760639694       -0.10936492813445
H           -5.78133924066721        3.80708355669868        0.68976218708836
H           -7.39077831578249        3.26668846007169       -3.27318136842950
H           -7.45277793554103        4.84176078602188       -2.48605699764349
H           -5.90902277251961        4.19433869835379       -3.03928880714204
N           -7.10797485783186       -1.02643656891137        0.29954120276137
H           -6.57281702956689       -2.04237483728340        1.80763272489952
C           -8.20583651563804       -1.95229309675881        0.16711169426732
H           -9.16854284324941       -1.43939396328978        0.04203788956737
C           -7.99237304852671       -2.89748331434812       -1.02127696983084
C           -8.26106269415935       -2.79935926511126        1.44579185934299
H           -7.02135517427246       -3.38195581475490       -0.93878401667573
H           -8.77142213174548       -3.65465939520869       -1.02237848699693
H           -8.03101389751595       -2.33738682864754       -1.95245476860115
O           -7.18935213930414       -2.69815192470166        2.21506532610895
O           -9.19288545320272       -3.51204458253204        1.70631871172251
