42
 energy: -62.486132287219 gnorm: 0.000628332655 xtb: 6.7.1 (edcfbbe)
N           -2.22394897634628       -1.13537340800115        1.71250934741872
H           -1.29311902598586       -1.53430289142998        1.69513107791107
H           -2.82106729541385       -1.78125038686879        2.22299146842764
H           -3.15012183945008        0.50320428331358        2.08106981043574
C           -2.74268869183696       -0.96403949172130        0.35524967946717
H           -1.96467606276941       -0.45454187247850       -0.22881592698152
C           -3.13456437725741       -2.26271367540134       -0.34549135468032
C           -3.92044715509153       -0.00577790726099        0.45156524258279
H           -3.82860236942449       -2.82801936772794        0.27285202055222
H           -3.62364044373989       -2.02885661905411       -1.28467258449263
H           -2.25353918890907       -2.87238625381086       -0.53597691504997
O           -3.90412415298477        0.79797018752543        1.53084481935208
N           -4.80823365100230       -0.01582447569312       -0.43784650577666
H           -8.13965214365773        1.25279458776651       -1.47765368848052
C           -5.94653439880953        0.87288059761044       -0.36188436180194
H           -5.97208129208730        1.40592859635347        0.60147437638775
C           -5.87997961323832        1.89374219099037       -1.50982485516832
C           -7.17381502708782       -0.01947618227270       -0.41238349215810
H           -4.82559338065266        2.09096647306050       -1.71288682361128
H           -6.28847185926416        1.44405700024871       -2.41950934869670
C           -6.57786071759500        3.22607420820338       -1.19052021370575
O           -8.28139802345028        0.39546528701062       -1.05595849893424
H           -7.50639076182730        3.03724450938941       -0.63562363449039
C           -5.68221609515854        4.09892405707728       -0.31323245146828
C           -6.92759995781954        3.96485962759530       -2.48173769367777
H           -4.78785479976313        4.38847412989918       -0.86072054507793
H           -6.20725810910377        5.00197576992019       -0.01067804338278
H           -5.37503423730869        3.56505422704923        0.58273756197715
H           -7.61910681458828        3.38873505297770       -3.09441594217274
H           -7.39057719207319        4.92288066647315       -2.25719879506303
H           -6.02791786351795        4.14862351958653       -3.06475212824753
N           -7.09506012404844       -1.11092643863735        0.20610357584550
H           -6.03298309487764       -2.16946735772487        1.06768547629217
C           -8.12791640997313       -2.10961006937782        0.29693480074990
H           -9.02819994198864       -1.70910139648412        0.78020585630049
C           -8.51602903445245       -2.71145915810853       -1.05700395983449
C           -7.54949669016148       -3.22702892955825        1.18733071325752
H           -7.62299834345620       -3.04858331595874       -1.57941015262194
H           -9.17520773148290       -3.55942232410796       -0.89343944051983
H           -9.02415421675082       -1.96848770241276       -1.66554717301265
O           -6.26965624695539       -3.03972336386470        1.48827108768282
O           -8.18637394017815       -4.17550826667898        1.55316292228663
