42
 energy: -62.486133525880 gnorm: 0.000478038704 xtb: 6.7.1 (edcfbbe)
N           -1.37536116334748       -0.36139412188911        0.70351930465446
H           -0.56098383381394       -0.94097520333150        0.53640015396300
H           -1.53800776671933       -0.35087259686299        1.70702120919536
H           -2.14787605097970        1.34806660049385        0.11659019361921
C           -2.55000703900277       -0.91487815928115        0.02608344920934
H           -2.26798917686193       -1.05999972883314       -1.02626257738356
C           -3.06168073363137       -2.23407681288613        0.59509007908166
C           -3.61435696554583        0.16992427263013        0.04065304670338
H           -3.40681979143155       -2.09700309682996        1.61625400039540
H           -3.89479903141732       -2.59017052165671        0.00064345523945
H           -2.27012598633787       -2.98089699672852        0.58273249226577
O           -3.11484630466661        1.42659002465667        0.00011159722258
N           -4.82607968424448       -0.14318896119194        0.10970424840743
H           -8.22173463206740        1.64082202282678        0.08634423602917
C           -5.90521601798412        0.81411374619343        0.04365716235320
H           -5.85224700208127        1.51451922543500        0.88948697347582
C           -5.81947630282999        1.59623654918952       -1.29170170989586
C           -7.18820056443714        0.01590145136898        0.13729886949499
H           -4.80218648611836        1.98427836229704       -1.35581473029374
H           -5.94821625895384        0.86829470835600       -2.09690109445431
C           -6.77265235965795        2.77591481719267       -1.52458922419872
O           -8.36422946227353        0.68747295999247        0.11946326271847
H           -7.80209459703307        2.41719546871864       -1.63957227103287
C           -6.70649450235091        3.80703846668819       -0.39788079422536
C           -6.39088430470450        3.44511230368135       -2.84679466975471
H           -5.68028894229547        4.14198272898693       -0.26268425986383
H           -7.31839869619748        4.67200110363324       -0.64539597943377
H           -7.05944575292927        3.41257526761335        0.55397195974242
H           -6.42806013538259        2.72892670313451       -3.66425109894080
H           -7.07650878341088        4.25852996194650       -3.07310770321829
H           -5.38324845400122        3.85074316485373       -2.79052634363206
N           -7.12078825200854       -1.22187146928470        0.33110304142590
H           -6.08090545084771       -2.57546539481412        0.76545546224321
C           -8.26560264017739       -2.07928118822002        0.49089537326117
H           -8.97517808631747       -1.67971423062678        1.22788226963185
C           -9.00754911564741       -2.31658606113345       -0.82791335221037
C           -7.72234505482509       -3.42428150305101        1.00868537531275
H           -8.30771358688550       -2.65604919688350       -1.58877064570054
H           -9.76812033933195       -3.07769695614519       -0.67834626857389
H           -9.47686783166271       -1.39471571472104       -1.16183289295070
O           -6.39941524210121       -3.46869640624546        1.06219523850839
O           -8.43318889209137       -4.34045121824899        1.32003799232848
