42
 energy: -62.486133512644 gnorm: 0.000479061346 xtb: 6.7.1 (edcfbbe)
N           -1.32893110324136       -0.42547882015985       -1.81915846017508
H           -0.73001952922371       -1.06030868311147       -2.33289945118752
H           -0.74829216301019        0.06967748854459       -1.14784822165518
H           -2.70954864191655        0.85315423254836       -2.17572426661469
C           -2.38745007532929       -1.15207558555947       -1.12017166754623
H           -2.82307425370240       -1.86086690539272       -1.83641954867503
C           -1.92725405771883       -1.91278329923590        0.12065676618134
C           -3.48956518076834       -0.14525610356025       -0.79622514161518
H           -1.49449998168216       -1.22446097043772        0.84401335897852
H           -2.77932206346592       -2.40220196721157        0.57940578117921
H           -1.18365453870865       -2.66102917546175       -0.14674367588986
O           -3.49379089485102        0.93305676618843       -1.59421655435667
N           -4.28418488674479       -0.41755045498503        0.13583134997546
H           -6.03279552111540       -1.35349169608047        2.18892034047178
C           -5.43238426566000        0.34934859359774        0.56856386577374
H           -5.25001605093156        0.57528665651346        1.62976538269559
C           -5.77360894357288        1.64213959502753       -0.17772334118029
C           -6.55569815023450       -0.66675783916487        0.47951662277837
H           -4.91371300632767        2.31145202336076       -0.13508362237379
H           -5.95504724049234        1.39240855449660       -1.22243673967100
C           -7.00443524111024        2.35689929068237        0.39251187947600
O           -6.73255547116429       -1.48462112591569        1.53736672583392
H           -7.80970021651360        1.62436750030005        0.51149862305509
C           -6.71461449713604        2.99337905346156        1.75066115023132
C           -7.46991538538660        3.42893155437012       -0.59106148393400
H           -5.89521485472858        3.70468570921510        1.66800645271711
H           -7.59233563854632        3.52488492804934        2.11171225533262
H           -6.44848331398168        2.24665112882990        2.49496302901946
H           -7.73141354202342        2.98417182188635       -1.54787966761694
H           -8.34339520499613        3.94938444810709       -0.20474095297650
H           -6.68030575604243        4.15895254331996       -0.75561729540565
N           -7.20230872720454       -0.78119800500283       -0.59314329657506
H           -7.32824884787454       -0.43012090989140       -2.35247619183580
C           -8.21938586135113       -1.78810531580645       -0.78064209690062
H           -7.91015555180480       -2.76330161513722       -0.38314379598799
C           -9.54209586056333       -1.38144083628644       -0.12191154754817
C           -8.44770812203252       -1.91647210468928       -2.29489614274069
H           -9.83997432840475       -0.39326350463714       -0.46731538679405
H          -10.31222014038221       -2.09908385350096       -0.39000944070875
H           -9.42637512251838       -1.36089230797155        0.95895605958521
O           -7.83339922830190       -0.97607062671297       -3.00181371468277
O           -9.12909980106884       -2.77402599136675       -2.78411278404830
