42
 energy: -62.486133508579 gnorm: 0.000480347344 xtb: 6.7.1 (edcfbbe)
N           -1.77144582679054       -0.64891628085996        1.32367122399773
H           -0.84745191956432       -1.03790712326789        1.18053309172591
H           -2.16277167031223       -1.09270406272829        2.15035367222185
H           -2.68769975928253        1.03234747047914        1.41645691259628
C           -2.63412986289251       -0.91385137965102        0.17167110270417
H           -2.05907537148129       -0.67085139854606       -0.73110895990217
C           -3.14669129762234       -2.34905881088159        0.07469326188516
C           -3.78858822328318        0.07476468589759        0.23987026881905
H           -3.67062014111644       -2.62391966712861        0.98779631441147
H           -3.84350759696642       -2.42368854290752       -0.75268869861357
H           -2.32036372787876       -3.03952263075182       -0.08172016907975
O           -3.56247333157173        1.16396737541949        0.99687374804827
N           -4.84881134395267       -0.16577467508608       -0.39036592969988
H           -8.01895772057874        1.12696373657404       -1.70695176771934
C           -5.96272722329271        0.75692665608270       -0.33825749507158
H           -6.00357218355522        1.24974950764436        0.64584045301687
C           -5.82519760376478        1.83573942003522       -1.42489348190825
C           -7.20935650835155       -0.09991365596698       -0.46985132315426
H           -4.76615342647099        2.08935011782557       -1.50335003857015
H           -6.11417500640279        1.41395011129384       -2.39262484396992
C           -6.61287622477810        3.12094532973597       -1.11851740929862
O           -8.22742326810678        0.29819819617849       -1.25744149219514
H           -7.56781791798842        2.86773476976250       -0.64026272143340
C           -5.82836625733936        4.00426397414647       -0.15006956361368
C           -6.90407969519700        3.88811181931467       -2.40793896795757
H           -4.91922667933713        4.36688709229159       -0.62482959805256
H           -6.42395112141103        4.86220871359372        0.15305850263665
H           -5.54627617555602        3.44909212701696        0.74089868412085
H           -7.51388370266346        3.30079058432452       -3.09279568128957
H           -7.43563393489521        4.81088704004423       -2.18789756818684
H           -5.97422728308055        4.14194987500994       -2.91220774990252
N           -7.23663744384929       -1.15573639657393        0.21211430719472
H           -6.32644472015564       -2.25135156716963        1.24051064733141
C           -8.32009794278624       -2.10548179106359        0.22203916157846
H           -9.26344644356803       -1.63580009541491        0.52791417818033
C           -8.52623900617510       -2.79887444238541       -1.12904507943799
C           -7.93700625287580       -3.17499049804915        1.26160678050398
H           -7.58411919862374       -3.21994807844967       -1.47430199386185
H           -9.25328251715828       -3.59782241106211       -1.01270152480186
H           -8.88665290224835       -2.08493042822438       -1.86459329484765
O           -6.68613242325677       -3.06016915735148        1.68918845587383
O           -8.68860040067328       -4.03564133688607        1.62825974042798
