42
 energy: -62.486133515622 gnorm: 0.000479494428 xtb: 6.7.1 (edcfbbe)
N           -1.57862718398341       -0.51684899316059        0.90584519529891
H           -0.79607641517666       -1.15608497423548        0.83031533879427
H           -1.75638095580936       -0.36966022589815        1.89582802171898
H           -2.20307590681714        1.12310853006422        0.09334949640627
C           -2.77186670539183       -1.08268664414428        0.27315023017170
H           -2.47364006790252       -1.40567476546210       -0.73383280559304
C           -3.39510386860808       -2.26100757209851        1.01389354648815
C           -3.75691328778543        0.06441262304037        0.08094342924088
H           -3.73463728571822       -1.95080445540507        1.99862045688752
H           -4.25100603676759       -2.62767394456398        0.45976774223459
H           -2.66877726198851       -3.06389676638602        1.12359791109571
O           -3.15433435300579        1.26425710789566       -0.08734628549515
N           -4.98348855241358       -0.18074734576077        0.10179716699790
H           -8.07793641824285        1.31944071078560       -1.46044075354820
C           -6.07355150937778        0.73467155738810       -0.11657504030657
H           -6.31776520028451        1.17904896915432        0.86035380934578
C           -5.83748400653255        1.86828724810661       -1.13697451626424
C           -7.26155535121432       -0.13759056238878       -0.50197534589590
H           -4.77192159214257        2.08645889272911       -1.16860307962113
H           -6.11360894089236        1.51555048142123       -2.13594601261997
C           -6.57513973545471        3.17468739568938       -0.79733130266897
O           -8.26211503475187        0.39945990681937       -1.23220894209453
H           -7.58462828786301        2.95771419453974       -0.42137851528824
C           -5.82928195262586        3.93731041710814        0.29586558392019
C           -6.70313029230718        4.04529533794357       -2.04677272424006
H           -4.83748212169643        4.21634095649814       -0.05185060101121
H           -6.36905580847275        4.84198516759566        0.56650951994257
H           -5.71511455906081        3.32778162955992        1.18905070967816
H           -7.26864419577374        3.53874126996053       -2.82720872438292
H           -7.21089664373768        4.97757894981578       -1.81066640335850
H           -5.71728290128491        4.28311852242425       -2.43990616401513
N           -7.28363166194955       -1.32189217535122       -0.08577999887836
H           -6.52387098737638       -2.52861377193115        0.94567931945713
C           -8.34669978756384       -2.25677875489279       -0.35099341093889
H           -9.32814158858330       -1.84265083125463       -0.08524008007649
C           -8.38383209442885       -2.71158443519279       -1.81346908038019
C           -8.07137535492386       -3.48159347577549        0.54175897731745
H           -7.39835641607079       -3.05995817174129       -2.11626380359481
H           -9.09684445566980       -3.52489418244671       -1.91592558251929
H           -8.68129793966433       -1.88558931969749       -2.45429686039381
O           -6.91693957735449       -3.40847116485708        1.18774981369132
O           -8.82467900925171       -4.41257351068150        0.62584551940256
