42
 energy: -62.486133506525 gnorm: 0.000480795959 xtb: 6.7.1 (edcfbbe)
N           -2.06304565228372       -1.64504241964750        1.31814865905037
H           -1.62122380564962       -0.89245911759642        1.83514504540702
H           -1.38134255883482       -2.38395349910955        1.19834190837814
H           -3.92614414006812       -1.44060907429582        1.85033599723085
C           -2.54804784270211       -1.16915984219425        0.02508606860062
H           -1.85255051140599       -0.49500012043150       -0.49433069186936
C           -2.85919899831424       -2.36248292055367       -0.87972893003798
C           -3.84366672535016       -0.42045698819571        0.28365922627078
H           -3.56151151231663       -3.03225944491643       -0.38799797892106
H           -3.29704101132131       -2.01270478042784       -1.80960387834205
H           -1.94900766433572       -2.91429932908424       -1.10535412023197
O           -4.50316752251228       -0.79939479586497        1.38527300814227
N           -4.21373314641296        0.46861266823280       -0.52756278546540
H           -6.15276930905314        0.22548250738289       -2.50179761699051
C           -5.50143864069824        1.12653559777873       -0.35835611023957
H           -5.63103714281033        1.43870411402039        0.68462745136553
C           -5.56413587619660        2.33264902074380       -1.29818429815003
C           -6.55125104368277        0.07731449651310       -0.63973423794031
H           -4.85694971790965        3.07712524726890       -0.92852340757724
H           -5.20901581118478        2.03274756481193       -2.28880323223831
C           -6.95697326263494        2.96375375747580       -1.41309856937107
O           -6.72747692054072       -0.29429857975776       -1.92536947093127
H           -7.66249458118001        2.21396871695427       -1.78938725054977
C           -7.46407606223134        3.45468930290672       -0.05907438201048
C           -6.90920926037131        4.12061486709196       -2.41022024948754
H           -6.74843086907038        4.14063238588245        0.38919384987199
H           -8.40928403831538        3.97839782252617       -0.18201843835051
H           -7.62534999534864        2.62251859603920        0.62100088299932
H           -6.55998716426555        3.78204535311478       -3.38353656068563
H           -7.89733559695375        4.55645449186077       -2.53522347535839
H           -6.23473490939940        4.89694302804235       -2.05542394371404
N           -7.13201672901105       -0.47233219235408        0.33029000813063
H           -7.31498138945738       -0.67797839953333        2.11837697038558
C           -8.05704154950932       -1.57049209049490        0.17660283463890
H           -8.85089593231064       -1.33575720166986       -0.54261458194391
C           -7.35486160949421       -2.86251440864204       -0.25810963085170
C           -8.68089584250862       -1.81670115279140        1.55953872718887
H           -6.54157879368442       -3.08642671753167        0.42986549359837
H           -8.06892176755751       -3.68111535419902       -0.24449577207652
H           -6.95213299400018       -2.74913367281785       -1.26135448323246
O           -8.03232545372824       -1.20763814134028        2.54284515720939
O           -9.63890788884058       -2.51900510430439        1.73050794979892
