42
 energy: -62.486133495673 gnorm: 0.000481441631 xtb: 6.7.1 (edcfbbe)
N           -1.82470149978753       -1.37623943597129       -0.80031350132923
H           -1.61221721045522       -0.88894112858415       -1.66429743462923
H           -1.68107236580437       -2.36732869010883       -0.95415336140311
H           -1.37644333833382       -0.15189932706231        0.55382695618573
C           -3.19549830634250       -1.10820179800374       -0.36439879756296
H           -3.90797031700491       -1.11317890953070       -1.19793597051757
C           -3.61540794351106       -2.15906755434720        0.66597320999049
C           -3.19229619067525        0.24601928051677        0.36977877924445
H           -2.88807056045080       -2.19246128831785        1.47440998924382
H           -4.58608021199874       -1.90438842530256        1.08235255212423
H           -3.67643890765102       -3.14388123480450        0.20600088274656
O           -1.98951850054297        0.54680793652895        0.87038991417951
N           -4.14448341854876        1.00003278362595        0.68807426471319
H           -5.49086995274016        0.26635619564746       -2.07475016627567
C           -5.48866233019807        1.14837767976018        0.22443233635905
H           -6.04518409208113        1.44148219661369        1.12303616833494
C           -5.51225404838456        2.32860246019573       -0.76621661425095
C           -6.22072399494178       -0.05901061503040       -0.33033141002556
H           -5.05433799812930        3.17553324446255       -0.25376703246563
H           -4.86852899341207        2.10119081922798       -1.62447858203736
C           -6.91213638080122        2.72161659284591       -1.25534210863965
O           -6.00839921053927       -0.41299472816742       -1.62231243602825
H           -7.37906445716786        1.86699089344330       -1.75929561390777
C           -7.81563234241380        3.14160467038121       -0.09863595433586
C           -6.78723629242714        3.86266870936344       -2.26469392230323
H           -7.33816784585601        3.91937644289211        0.49261952822192
H           -8.75534678684138        3.53056944985943       -0.48340510734262
H           -8.04184578926981        2.29850280984526        0.54848814642392
H           -6.15680298829668        3.57709506372860       -3.10460096317721
H           -7.76574293396981        4.13547265727623       -2.65178787425344
H           -6.34973394823425        4.73798459409469       -1.79019796828150
N           -7.06469637951207       -0.64508142690716        0.39765471444077
H           -8.10778916888614       -0.67952064652980        1.90969696071043
C           -7.87299149277892       -1.73642526337642       -0.09848321210297
H           -8.25686641260105       -1.52179257736278       -1.10458355823022
C           -7.11220608557164       -3.06562972977653       -0.14258415917510
C           -9.06335787791125       -1.89545707418333        0.85970821505494
H           -6.69851598482167       -3.29378641050079        0.83759091927323
H           -7.79944599860556       -3.85666642219156       -0.42914801932251
H           -6.30547798944318       -3.00838987003925       -0.86884802029498
O           -8.94637117901586       -1.18950113207286        1.97762951980127
O           -9.99760141329090       -2.60824888861720        0.62197565906310
