42
 energy: -62.486132274312 gnorm: 0.000626193916 xtb: 6.7.1 (edcfbbe)
N           -1.53525973918514       -0.65659503085964        1.02095488934691
H           -0.64622396500263       -1.10929652715441        0.84525288820781
H           -1.88614553435006       -1.01085100898542        1.90706844665815
H           -2.37813058334184        1.09264136168609        1.01526117596798
C           -2.49356734600379       -0.96271144904384       -0.04130656846459
H           -1.99088030975807       -0.76231579698924       -0.99703005515194
C           -3.02093108384810       -2.39514839117667       -0.03809803210775
C           -3.62599840059939        0.04461508010436        0.08020460755215
H           -3.49068159482777       -2.61820869147851        0.91724574493340
H           -3.76878555321492       -2.50319391177206       -0.81574471399716
H           -2.21056713859558       -3.10053425710626       -0.21113239403626
O           -3.29077441867773        1.20232533752303        0.68135312459196
N           -4.76556007070124       -0.24275946394363       -0.36270904107751
H           -7.43575983588058        0.79043018992672       -2.21905030066480
C           -5.86495375012789        0.70070312748279       -0.28120144673824
H           -5.94635372943778        1.07750689615363        0.74769468148392
C           -5.66015607865021        1.88933299439850       -1.22979852543475
C           -7.10587597679804       -0.12754902810609       -0.56776044887908
H           -4.66987823418714        2.30044599245515       -1.02682068201022
H           -5.63906178149873        1.52696275608794       -2.26390055878807
C           -6.70076124476568        3.00760478039280       -1.05726348747690
O           -7.81859099435975        0.07886471651478       -1.69048245271069
H           -7.69268029156755        2.57025800364627       -0.89206997132400
C           -6.36363235482192        3.87455111167838        0.15384586195656
C           -6.75465657144590        3.87211163476638       -2.31685195721869
H           -5.40534778468806        4.36878420083426        0.00944606516107
H           -7.12580901924511        4.63673064352583        0.29822087327544
H           -6.30607977778381        3.27559844331811        1.05887000562825
H           -7.06035501983435        3.29109763109906       -3.18550977628629
H           -7.46474852539843        4.68540305682083       -2.18810604001887
H           -5.77621335685265        4.30207135046769       -2.52036767760451
N           -7.39338410276990       -1.02542936941162        0.26655568010746
H           -7.01853453380560       -1.86347492607008        1.79109538685264
C           -8.49856833602960       -1.93917874800989        0.09830965788387
H           -9.44096357366971       -1.40497439158588       -0.07662169508467
C           -8.27228487122600       -2.93272920060524       -1.04686298865104
C           -8.61443506102772       -2.73480785701846        1.40912891083023
H           -7.30855776903278       -3.42262148446587       -0.92347339002071
H           -9.05956442432054       -3.68129025877640       -1.03051789126923
H           -8.28581063415175       -2.41253229450139       -2.00060691680811
O           -7.59294482504849       -2.53725097575933        2.23284686454430
O           -9.52672306657315       -3.47661207780629        1.64886730274638
