42
 energy: -62.486133500469 gnorm: 0.000481418965 xtb: 6.7.1 (edcfbbe)
N           -2.62090567871967       -2.05291730852402        1.56256694667280
H           -2.90287508828516       -1.87636502313137        2.52106654305970
H           -1.65388174960200       -2.35377389285064        1.56876424690413
H           -4.26486969469777       -2.56875926124737        0.77496107156750
C           -2.79286033190394       -0.85683950735453        0.74239863526915
H           -2.45448925011599        0.06957522389974        1.22591603892067
C           -2.04812847115382       -1.03166763266138       -0.58136126408950
C           -4.28750035601905       -0.72791790550700        0.44566470991335
H           -2.38920074237773       -1.93310057564083       -1.08544921817689
H           -2.23773863077108       -0.17544264464868       -1.22112524682999
H           -0.97698271720792       -1.11208937325905       -0.40795821818597
O           -4.92264307326151       -1.91221131426838        0.45285905549583
N           -4.71170060357068        0.41774977407578        0.18104767312420
H           -8.01998215835338        1.31646780447575       -1.49672386740650
C           -5.99985291893155        0.96036141081183       -0.14301152052246
H           -6.23431748416315        1.61807430620314        0.71013917667409
C           -5.78632238846632        1.85302826812131       -1.38914426282123
C           -7.21140849083859        0.04916969987529       -0.28225995219205
H           -4.70964753442260        2.00185348714291       -1.48537162753640
H           -6.10912679289790        1.31487104472024       -2.28521302166113
C           -6.45829962525553        3.23382529976941       -1.31026270127516
O           -8.22072062855662        0.46685647270000       -1.08643170407125
H           -7.46016606055610        3.14361879777134       -0.86941019302646
C           -5.64366993941957        4.17075694969116       -0.42085352899457
C           -6.60002315237030        3.83155075997892       -2.70957776129214
H           -4.67144247994876        4.36212634919576       -0.86905423966307
H           -6.15786695231942        5.12079594551522       -0.29485398055531
H           -5.48412351994683        3.73327433880896        0.56134211051239
H           -7.22786950190178        3.20914360954802       -3.34489135287236
H           -7.04686571330881        4.82149536954946       -2.65656226599335
H           -5.62325640644297        3.92245317831226       -3.17937789539567
N           -7.28574802925439       -1.01340553605812        0.37988107397646
H           -6.52345749330034       -2.30086162070915        1.51307840551533
C           -8.43169430359524       -1.88654114576987        0.33520301952647
H           -9.37807813422255       -1.33346846509027        0.38304016551706
C           -8.42229528556961       -2.75649841736254       -0.92783001469584
C           -8.32441669655213       -2.82024018192540        1.54805284880428
H           -7.46709860112353       -3.27118384632972       -1.01148136540403
H           -9.22259796151709       -3.48910588183109       -0.86992787315634
H           -8.56697093881368       -2.13287563123261       -1.80653403939924
O           -7.09627610424158       -2.91220737347173        2.03775282503292
O           -9.25881960768807       -3.43160146489373        1.98986830133904
