42
 energy: -62.486133508448 gnorm: 0.000480791041 xtb: 6.7.1 (edcfbbe)
N           -2.21056130894294       -1.59791440592629        1.47194649915388
H           -1.76915285507679       -0.82270963806515        1.95521389929154
H           -1.52682914536492       -2.33927807447540        1.37781510627498
H           -4.07226868758183       -1.41363457016948        1.99162404769802
C           -2.70716644203744       -1.17797872841798        0.16400364592871
H           -2.02238451939982       -0.51801436842480       -0.38620890421655
C           -3.01179195216627       -2.40977347128768       -0.68992819758108
C           -4.01205148172952       -0.43370555905073        0.39692998176737
H           -3.69126986805807       -3.07298612144083       -0.15864981863275
H           -3.47363519196462       -2.10259846955920       -1.62341152094657
H           -2.09598873752191       -2.95350645649046       -0.91202264257031
O           -4.66064038817784       -0.79020708717782        1.51502570346109
N           -4.36597298743765        0.43894297811032       -0.43514512721622
H           -6.87941502076766        0.60429550842903       -2.43733189341441
C           -5.64858013535660        1.11959321476075       -0.36753366969220
H           -5.79762748948255        1.50930398028517        0.64902223086707
C           -5.61805851578978        2.26977584532329       -1.37505754824638
C           -6.74688349145596        0.09704083385903       -0.59088096346300
H           -4.75946368977861        2.89347975640177       -1.11959010328545
H           -5.41144791119448        1.86867987078693       -2.37279392558381
C           -6.88380781008357        3.13764637070059       -1.39394285488145
O           -7.26852271279698       -0.03763017314246       -1.82972692927628
H           -7.77016934086008        2.49813452142511       -1.47806336340658
C           -7.01522236042156        3.95486558366543       -0.11050171954115
C           -6.84554922008362        4.07037201164504       -2.60431170244317
H           -6.13488427273859        4.57721862018753        0.03534048039120
H           -7.88720245853162        4.60242063296298       -0.16596005102881
H           -7.13094180097275        3.30871571299283        0.75564138112974
H           -6.79213283212250        3.50666779453044       -3.53380558208820
H           -7.73756708819791        4.69119397955424       -2.63501152906866
H           -5.97642447906946        4.72227087336281       -2.54976211086820
N           -7.06358176310585       -0.64787220867177        0.36997327204450
H           -6.67304029800356       -1.23569169020402        2.06806589234884
C           -8.01174772157527       -1.72894326609194        0.27396999741633
H           -8.98788229783423       -1.37678769288884       -0.08191614284526
C           -7.53288774197043       -2.86517390703431       -0.63817437970929
C           -8.17287205260529       -2.29882045823638        1.69310358460316
H           -6.54499736709885       -3.19866724469862       -0.32544615818288
H           -8.22801747036331       -3.69705701251489       -0.56711270234530
H           -7.48154733631244       -2.52274179768123       -1.66812572015782
O           -7.24678415104944       -1.88426577881556        2.54465592386643
O           -9.03921884954206       -3.07668573662426        1.98701884117774
