42
 energy: -62.486133519075 gnorm: 0.000479192848 xtb: 6.7.1 (edcfbbe)
N           -1.51785079665105       -0.52933225169685       -1.99404217057195
H           -0.90651941416646       -1.19137953199005       -2.45604286006818
H           -0.93287034917722        0.12107493202656       -1.47667443178453
H           -3.03951967631618        0.55226200886814       -2.41201385667767
C           -2.43446870581640       -1.20856024851945       -1.08014297759241
H           -2.85745000888048       -2.06511875766788       -1.62076747247908
C           -1.79431040668762       -1.69913198527212        0.21580992303012
C           -3.59805422460204       -0.25477926993169       -0.81689262140779
H           -1.37008325734333       -0.86087069123816        0.76495553534366
H           -2.55009431974391       -2.16763202966083        0.83633931865807
H           -1.00672400385485       -2.41911059974208        0.00190902011835
O           -3.77627176204646        0.66449335743813       -1.77598717060573
N           -4.28480133775316       -0.42814469319570        0.21982938583986
H           -6.14947108779100       -1.35660304952047        2.23360457837951
C           -5.45420521352855        0.32506878628425        0.62186824716889
H           -5.29900390806490        0.53617970605642        1.69057970084826
C           -5.77353211196174        1.63044263017159       -0.11121635950908
C           -6.57953007050411       -0.68313365719272        0.49202707629531
H           -4.89281095805112        2.27384201910382       -0.08282152404837
H           -5.98743987815448        1.39520893768277       -1.15236094059507
C           -6.97107361408312        2.37115391521263        0.49607145578991
O           -6.81264320165817       -1.49224301845081        1.54565274034612
H           -7.77624827879453        1.64823072929171        0.66736893214186
C           -6.61504416500892        3.03616260225655        1.82442405383059
C           -7.47220709334805        3.42442579461053       -0.49010749115263
H           -5.80875283407662        3.75314570973794        1.68307855967921
H           -7.47695756817953        3.56654338590439        2.22319457774005
H           -6.29925630141735        2.30700931750706        2.56674974035374
H           -7.78784531049469        2.95906170897502       -1.42041760161668
H           -8.31781184586710        3.96720444875542       -0.07360976934332
H           -6.68240912352989        4.13842739659276       -0.71348450061767
N           -7.18297444697797       -0.79146616269918       -0.60609488602867
H           -7.16141125429422       -0.49845474798943       -2.38377390731325
C           -8.20432911957710       -1.78414527959953       -0.83709397633068
H           -7.94170985613362       -2.75576517376737       -0.39873780906268
C           -9.55777835354142       -1.33652977500410       -0.27494451937876
C           -8.33448946248793       -1.94635200594337       -2.35992929418836
H           -9.80741873321842       -0.34732268351192       -0.65375072107493
H          -10.32506409962116       -2.04058258974993       -0.58410129140487
H           -9.51466598072934       -1.30126261457186        0.81090320336328
O           -7.63870380040281       -1.05052693069945       -3.04867157121067
O           -9.01238532930401       -2.79351543344348       -2.87175114416758
