42
 energy: -62.486133509521 gnorm: 0.000479999496 xtb: 6.7.1 (edcfbbe)
N           -1.14533713683716       -1.19151635139168        0.79944743949073
H           -0.85852148600402       -0.41243377680863        1.38271571537963
H           -0.31176811898030       -1.69366178182035        0.52007363453798
H           -2.90542873881276       -1.55044575231641        1.53643124727024
C           -1.88447794406001       -0.71616521183029       -0.36785040241608
H           -1.46499506113452        0.19121188966825       -0.82396197634386
C           -1.94980822400005       -1.82004744322327       -1.42580756434797
C           -3.29642379076959       -0.40434185666758        0.09888858492203
H           -2.39389057469193       -2.72123945282933       -1.00621019579808
H           -2.54275962099240       -1.48466465748919       -2.27214245691251
H           -0.94975946998536       -2.06101448534332       -1.77967459434321
O           -3.68682327121210       -1.06297113334346        1.20515657691503
N           -3.99726892497313        0.42063162902000       -0.54713433140573
H           -4.82100994857365       -1.53731675689700       -1.01035035310988
C           -5.36748189415681        0.70014200603348       -0.17214903377277
H           -5.41486195674578        0.98830289410752        0.88653279111396
C           -5.78103131780973        1.88847022031615       -1.06178195129058
C           -6.28187447898272       -0.50338687070631       -0.33835743475195
H           -5.01984024745716        2.65597038831402       -0.90618146716194
H           -5.70191311903986        1.56043724428111       -2.10013155575350
C           -7.16343448311833        2.50045030443411       -0.83355063106701
O           -5.75701399220539       -1.65546137403288       -0.79521716927889
H           -7.91992132905566        1.76424921640527       -1.11317641807134
C           -7.37954768219137        2.90665513076640        0.62148616620244
C           -7.32593957334185        3.71667607302955       -1.74498824148519
H           -6.60845616481361        3.60632528427783        0.93859004262970
H           -8.34701160282810        3.38968926057010        0.73507530697601
H           -7.35318172405939        2.03966701175684        1.27605066702485
H           -7.17708838377867        3.44093945928488       -2.78620900139738
H           -8.32434977664326        4.13406102717934       -1.64157595220829
H           -6.60279889974719        4.48791348080412       -1.48736927129122
N           -7.52182622290190       -0.35686178912522       -0.15950425683603
H           -9.01014176487600        0.63751992171303        0.34348663362744
C           -8.44027538816589       -1.45537485680011       -0.36453247223456
H           -8.26893472648643       -1.95202716652535       -1.32795819996598
C           -8.34465348656298       -2.50150751697052        0.75329407101464
C           -9.86155059651299       -0.87951451562287       -0.34265388889086
H           -8.48881180236031       -2.02509266728863        1.72122128357012
H           -9.11468598065668       -3.25404226344557        0.60824565413828
H           -7.36677447160099       -2.97535607338797        0.73399261154672
O           -9.93197735188412        0.34698164386535        0.16151746931894
O          -10.82254052930543       -1.49387618325671       -0.71480197259355
