42
 energy: -62.486133510415 gnorm: 0.000481033747 xtb: 6.7.1 (edcfbbe)
N           -1.20502824544847       -0.87699871858864       -1.51711364054856
H           -0.39406742888189       -1.48274846717909       -1.53569832636352
H           -0.87018445024679        0.08232407749732       -1.49349130254057
H           -2.83485396672809       -0.69005922895420       -2.43520205614201
C           -2.03317773034127       -1.14131985065263       -0.33968407715498
H           -2.13639992372401       -2.23079020935895       -0.24998626146407
C           -1.48565733166326       -0.57908148984389        0.96871256807646
C           -3.42506173940100       -0.60122316736544       -0.64054467454019
H           -1.33869379179962        0.49517993948586        0.88302398225961
H           -2.19985535557996       -0.76340971634919        1.76332943425690
H           -0.53659419244286       -1.04866178074238        1.21785556772634
O           -3.67866856679416       -0.48477072190562       -1.97726938771588
N           -4.20053527136858       -0.33247623739639        0.30107559336149
H           -5.33494379429910       -1.10249442428807       -1.89247542574763
C           -5.54624150932696        0.18533132115315        0.22918925825319
H           -5.86981087043298        0.28199900440390        1.26908188140804
C           -5.54501710618835        1.57901716801926       -0.44178349605343
C           -6.55911777861824       -0.69373005387348       -0.47414116184612
H           -4.75463910984326        2.16651496555418        0.03192874877453
H           -5.27993398839218        1.45155628707610       -1.49479066726379
C           -6.86892504216119        2.34231929506514       -0.34551470365150
O           -6.22027269803764       -1.36238154820511       -1.58289609040307
H           -7.67494183726447        1.69908907855751       -0.71092491222361
C           -7.18612566188972        2.75037730734541        1.09054517043965
C           -6.80136142562589        3.58298474417852       -1.23567894893943
H           -6.40133781202554        3.39347134994728        1.48411284543452
H           -8.12579155157493        3.29575955591656        1.12341922452094
H           -7.27889178142253        1.88166503649958        1.73586916340619
H           -6.61875825506070        3.30818076010694       -2.27224768215198
H           -7.73856250457141        4.13164692697113       -1.18903700801781
H           -6.00061754012312        4.24339387801267       -0.90836188285439
N           -7.73239974935044       -0.69691820521096       -0.00440743730362
H           -9.01117949001550        0.15022830314205        0.96382111581314
C           -8.79914683991701       -1.42905114737109       -0.64859859594092
H           -8.73551149248626       -1.36989686345284       -1.74338466849822
C           -8.79866644994959       -2.90451439825106       -0.23529537887415
C          -10.12252580292343       -0.79547583065649       -0.19602386081231
H           -8.81280833738710       -2.98553025401034        0.84973406753677
H           -9.68091632551174       -3.39145357870357       -0.64177215837029
H           -7.90573116032443       -3.39427661361342       -0.61579931670838
O           -9.97894593388181        0.08978368461048        0.78298603811524
O          -11.18429174799639       -1.08558447353063       -0.67362652325969
