42
 energy: -62.486133517119 gnorm: 0.000479592452 xtb: 6.7.1 (edcfbbe)
N           -1.93299817949550       -0.10023212856754        0.74333829375085
H           -1.18543436533920       -0.53928041350574        1.27050936808257
H           -2.51496930469883        0.42451099717634        1.38792263594833
H           -3.97847667082888       -1.44526090568768       -1.97994258573783
C           -2.75408605747068       -1.11125979679635        0.10137438741266
H           -2.21153192429241       -1.44979966857002       -0.79559394682738
C           -3.05038612923164       -2.33132140242758        0.99112824481223
C           -4.06311307005082       -0.47598124752249       -0.31772532395115
H           -3.59868898593253       -2.01319158284737        1.87418922929990
H           -3.64018860085011       -3.07542264234371        0.46263790679698
H           -2.11541699033855       -2.79339000950869        1.30287954181177
O           -4.55479217208291       -0.81270694827837       -1.53239776290920
N           -4.62876616850404        0.29770217793726        0.49446043315741
H           -8.18867515995108        1.61936610660467       -0.06867797533316
C           -5.84655444361285        1.01567876383716        0.20568644728459
H           -6.00452518970373        1.66183354644430        1.08089302885788
C           -5.66222178349976        1.88960016133382       -1.05712379154247
C           -7.03753386848109        0.08874108612136        0.11335757936908
H           -4.64857502983322        2.29362899634846       -0.98837837940005
H           -5.69488014098128        1.23285575252191       -1.92808707924158
C           -6.62378427741816        3.06413959520260       -1.28507228700897
O           -8.25245469334715        0.65688132721712       -0.05142142996651
H           -7.62083362112018        2.69060572002106       -1.54925023216461
C           -6.73170813353593        3.98828744701055       -0.07229705746785
C           -6.12067371724288        3.86308712488218       -2.48941726975787
H           -5.74251460838630        4.32390069353534        0.23023395759664
H           -7.32605268529290        4.86392501925488       -0.32399376981662
H           -7.20192762504608        3.50479961825408        0.78220820186902
H           -6.02702937214220        3.22252427638466       -3.36309167930671
H           -6.81119017697985        4.66880921490396       -2.72793361103495
H           -5.14664881202312        4.29741823666526       -2.27603080285360
N           -6.89136015552189       -1.15003455419285        0.27572621665576
H           -5.87806219170968       -2.49386268936734        0.81914759741180
C           -8.00271661876981       -2.07131782928624        0.22364794062172
H           -8.82531433278657       -1.74522469526195        0.87354478061636
C           -8.54066323492145       -2.25382652012824       -1.19904318855164
C           -7.48337235124509       -3.42502314679080        0.73232204124094
H           -7.72210146606932       -2.49484549872894       -1.87424494237924
H           -9.26083929925906       -3.06710939752256       -1.20549078572864
H           -9.02160458686663       -1.33988318532104       -1.53681648211396
O           -6.18168162761987       -3.41976333022184        0.99460670766622
O           -8.18184343324426       -4.39158395291933        0.86115095245659
