42
 energy: -62.486133521002 gnorm: 0.000478848585 xtb: 6.7.1 (edcfbbe)
N           -2.76210484654124       -2.12013963610724        1.32681974910473
H           -3.21461857499616       -2.24365884531944        2.22722188488418
H           -1.78757686172912       -2.37829569556696        1.42610695999083
H           -4.23438875228862       -2.44017381077281        0.18882547540844
C           -2.89408046191855       -0.74191782635187        0.86176194847895
H           -2.71503804646981        0.01208861267766        1.64025521457955
C           -1.93199291056212       -0.49623344206880       -0.30080693824304
C           -4.32590385664668       -0.57941860836577        0.35934934502356
H           -2.10665934012746       -1.22375152219530       -1.09042236527694
H           -2.08884901781778        0.50262260432880       -0.69599089034655
H           -0.90065787116356       -0.58466182648233        0.03431340717820
O           -4.88256706450904       -1.73628351177872       -0.03941352583677
N           -4.78932322198947        0.58236588214831        0.29565281820706
H           -8.29035871007728        1.32670116176993       -1.08155551065446
C           -6.08971177111031        1.03594474896029       -0.11054696868717
H           -6.31948334976948        1.85719101822856        0.58655889163544
C           -5.96464441235402        1.62216995493489       -1.54277105943664
C           -7.26850896178784        0.08441771120007       -0.01526529438715
H           -4.90878872438855        1.58893005439064       -1.81740323502236
H           -6.49388255220426        0.97592160619407       -2.24847846488885
C           -6.45039155939127        3.07257611597086       -1.67840607854581
O           -8.41111915043817        0.48325537941676       -0.62834903697946
H           -7.40445502970261        3.19908247878571       -1.14818784084741
C           -5.43605294448089        4.03148107024376       -1.05963051424836
C           -6.67282880872697        3.41581265429156       -3.15049618812120
H           -4.50853610597201        4.01078289466676       -1.62712787732218
H           -5.81927782952818        5.04929399445439       -1.06361837908736
H           -5.21130941042778        3.74914059728203       -0.03447117960789
H           -7.43675861301145        2.77848229871647       -3.59195225832444
H           -6.98990321159801        4.45059857046640       -3.25562385017467
H           -5.75049616370385        3.28203900614675       -3.71116215700415
N           -7.20374745959424       -0.95959657460469        0.67694732835880
H           -6.17567105779994       -2.24874855482052        1.46462818911925
C           -8.31329080661349       -1.86234763793407        0.86405046219504
H           -9.20703907865527       -1.33797437706718        1.22341969730112
C           -8.66361888275272       -2.62926826455004       -0.41703588772547
C           -7.86604311990183       -2.88720708813017        1.91645537106143
H           -7.77085117552328       -3.10858380000573       -0.81428061341368
H           -9.40869254211343       -3.38725806055122       -0.19121342317541
H           -9.06015589707148       -1.94459920226824       -1.16213441747910
O           -6.54776049761996       -2.94406804605169        2.06150307910392
O           -8.62905259501857       -3.58873760405319        2.52140899260140
