42
 energy: -62.486133506185 gnorm: 0.000479945248 xtb: 6.7.1 (edcfbbe)
N           -2.24713473232540       -2.39634932088788       -1.09128902355068
H           -1.30794120227620       -2.75920451854882       -1.19881835408054
H           -2.69338956633941       -2.42239791938498       -2.00424532759230
H           -3.82296364590474       -2.59109618656723       -0.01501758965830
C           -2.22704058075752       -1.02513826972699       -0.58754560838699
H           -1.55947769659036       -1.00948685057387        0.28405150426896
C           -1.76211848434435        0.02222372405281       -1.59652965710859
C           -3.63083345525608       -0.72049808252220       -0.07632390531576
H           -2.39457230771546       -0.00536636413397       -2.48125888155978
H           -1.83925297469320        1.00846158646359       -1.15226704977441
H           -0.73103667990781       -0.16401781681215       -1.89047322597618
O           -4.34835099121507       -1.80850480664650        0.25205781083435
N           -3.98868973853417        0.47689031804555        0.04148471727165
H           -5.56404615734122       -0.05792828965752        2.67372385771872
C           -5.29578283902727        0.93092006132453        0.45957809964053
H           -5.11324475392306        1.59112242079010        1.32016339146499
C           -5.86942608018847        1.76893326058366       -0.69332491973111
C           -6.24537420957136       -0.16977989464175        0.87842131299438
H           -5.10639747282169        2.49298210967243       -0.98264852498780
H           -6.03802140879149        1.09747144645604       -1.53559731012864
C           -7.17664056885629        2.49226476452735       -0.35724763215243
O           -6.26348836899063       -0.51006499637939        2.18710504553237
H           -7.89189035973336        1.75567013832886        0.02192943143565
C           -6.97587537797649        3.57572640335994        0.70012724708371
C           -7.75065483395753        3.11105973665391       -1.63062368219675
H           -6.21164675143024        4.28110996478124        0.38044471983439
H           -7.90270641325525        4.12298941384411        0.85635799802404
H           -6.67668279803139        3.15113671622470        1.65510836524262
H           -7.93317443789589        2.34588526608999       -2.38090268678278
H           -8.69121465413429        3.61442190347330       -1.41966912968240
H           -7.05674739857058        3.84010879816376       -2.04364304938253
N           -6.96635966201518       -0.73203253240146        0.01330166498119
H           -6.87341999407402       -1.36948305099108       -1.65309969085445
C           -7.82796657565850       -1.84383310815065        0.33022741277404
H           -7.47999224042790       -2.40915488920007        1.20386544154311
C           -9.26325030382143       -1.36722474994050        0.57347420451531
C           -7.82077808902741       -2.77481063579207       -0.89147932848425
H           -9.60096203055131       -0.76433972444974       -0.26723156517006
H           -9.91546733417555       -2.22954226221593        0.67906165888159
H           -9.30733119814198       -0.76756989022161        1.47964444750045
O           -7.20689273044360       -2.25187221320827       -1.94772939398151
O           -8.32795412952126       -3.86170732460261       -0.89422766122251
