42
 energy: -62.486132343025 gnorm: 0.000614463017 xtb: 6.7.1 (edcfbbe)
N           -0.99248816610235       -1.47593131001760        0.32269626819110
H           -0.87628809069221       -1.32411359983266        1.31900865003472
H           -0.07082341237103       -1.53037226021493       -0.09413613472737
H           -2.59308424397039       -2.46432182115726        0.15774008915154
C           -1.77461691651562       -0.39747630365781       -0.28063100554722
H           -1.54861934626565        0.59738354773400        0.12446595013945
C           -1.55768963448828       -0.38422986242911       -1.79390673415829
C           -3.24556452263760       -0.70169540731750       -0.01643822398166
H           -1.78476274230795       -1.36199337671854       -2.21371052359760
H           -2.20966160987376        0.35549271333161       -2.24849247281012
H           -0.52486543390904       -0.13432003138900       -2.02720637909405
O           -3.47769678217403       -2.03661621545292        0.13669023183565
N           -4.04819716536740        0.24740285291253        0.00971877792263
H           -5.07441466350655       -2.00088467282637        0.67939552246493
C           -5.46529868041570        0.45089975671360        0.11964893516177
H           -5.58080847978065        1.04628594498290        1.03653152022831
C           -5.76015495096305        1.37385422480782       -1.08755547467708
C           -6.44799296051961       -0.70686981457618        0.25704376191371
H           -4.92224169010251        2.07406658891378       -1.11554894941395
H           -5.71007188161799        0.76403108195095       -1.99171857188015
C           -7.06402245503904        2.17874425015809       -1.10793356685312
O           -6.04051227297840       -1.88923428425160        0.73495806534752
H           -7.87393805623525        1.51913810304181       -1.42204965452011
C           -7.41047879695903        2.78083755859305        0.24979430386087
C           -6.93529467772794        3.28808515580352       -2.15271263275645
H           -6.58690211481939        3.38840823130077        0.61961147350078
H           -8.28873884134422        3.41605757738579        0.16104394868479
H           -7.62766649187485        2.00108338183539        0.97485968973001
H           -6.66525644978394        2.87447796180360       -3.12135235938129
H           -7.87896712313783        3.81717774041450       -2.25912600680221
H           -6.17090088139372        4.00486827288997       -1.85923198121095
N           -7.66717360611227       -0.49365842694495       -0.00743543407140
H           -9.18133654569843        0.56759145970064       -0.40216289935744
C           -8.63642299248425       -1.55637245683103        0.17105424852433
H           -8.28277341708036       -2.50559710321288       -0.24953564712241
C           -8.98265668579375       -1.77194984117232        1.65148255253454
C           -9.92900322488163       -1.13696443706061       -0.53287292256037
H           -9.32037999798864       -0.83715633107271        2.09596389487353
H           -9.77504404245940       -2.51093162777558        1.73259233714275
H           -8.10571905278728       -2.12443673377022        2.18783922772103
O          -10.03431265403549        0.17834153026667       -0.69540328802181
O          -10.78334950498331       -1.91112762347710       -0.86404365139494
