42
 energy: -62.486133516636 gnorm: 0.000479382290 xtb: 6.7.1 (edcfbbe)
N           -1.08646689214033       -1.61162568498946        0.46820152858739
H           -0.84554396043546       -1.25439037730052        1.38669262587598
H           -0.22604020863568       -1.85855686525204       -0.00593921753948
H           -2.78270096655027       -2.43855288152215        0.67936191488126
C           -1.83640215051093       -0.61721387135984       -0.29838144206050
H           -1.49241570136272        0.41430264581528       -0.14710160354568
C           -1.77232806118536       -0.95332521390099       -1.78839397854594
C           -3.29150580613142       -0.70727315171827        0.14402737574728
H           -2.11614361279488       -1.97151692812206       -1.95844568626821
H           -2.40736309833263       -0.26914843917642       -2.34284190435976
H           -0.75161473712634       -0.86240665644667       -2.15390159493946
O           -3.61908374979109       -1.92512061579303        0.64869437982707
N           -4.01623723248808        0.29843126219911        0.00918750824502
H           -5.18169290074360       -1.61984717224201        1.52294802978315
C           -5.41826418931012        0.54190107122882        0.21945203090721
H           -5.46575178515205        1.10804151291567        1.16476952022508
C           -5.86361723920438        1.47493376042049       -0.91983913840379
C           -6.38626186335677       -0.61709874146006        0.41272563863613
H           -4.99821859310838        2.08094881716751       -1.19157980539390
H           -6.12524728816768        0.85705688819144       -1.77896268872167
C           -7.03494733037917        2.39797469492664       -0.56436841952284
O           -6.13540219203816       -1.53645349687235        1.35913112860377
H           -7.79540241077536        1.81218365720683       -0.04058930915114
C           -6.58378643388298        3.54114127955199        0.34274839517233
C           -7.64905160623291        2.96825201790863       -1.84180211295752
H           -5.84376354747519        4.15666186208278       -0.16453792859378
H           -7.43037777025862        4.17104366047219        0.60600429903894
H           -6.14337131557276        3.16871210414520        1.26438158435852
H           -8.03004350614140        2.17617376547728       -2.48146527952334
H           -8.47265579455050        3.63633280632179       -1.60153301119682
H           -6.90358131553233        3.53202488110453       -2.39891216677742
N           -7.46570707129584       -0.60267089630635       -0.24054314061030
H           -8.41749294063897       -0.01815867250543       -1.65557454538747
C           -8.48056836610773       -1.61374374718304       -0.06237377692862
H           -8.05077540503686       -2.61772006759425        0.04707559013967
C           -9.35811064902014       -1.31767506516342        1.15936984853922
C           -9.37096414810972       -1.57954300093703       -1.31307280533846
H           -9.76928079768996       -0.31244924775274        1.08752746887290
H          -10.17404793942005       -2.03379844001393        1.19816154829031
H           -8.76415815508012       -1.39484785344943        2.06663362689669
O           -9.15925249959240       -0.51496115161890       -2.07811675541283
O          -10.19055003992349       -2.42004407622640       -1.55988279195421
