42
 energy: -62.486133510487 gnorm: 0.000480136533 xtb: 6.7.1 (edcfbbe)
N           -2.09294113899167       -1.25836454276171       -1.72369817465159
H           -2.15471196511440       -0.62036514172330       -2.51072235737975
H           -2.02346624050824       -2.19983714641179       -2.09310764220421
H           -1.28214975993273       -0.22168344511428       -0.38516225246052
C           -3.27789360414025       -1.12913330109115       -0.86784254082116
H           -4.21540148470568       -1.03747526196512       -1.42546789225263
C           -3.35329999164861       -2.33751747927098        0.06684578001101
C           -3.07531319267653        0.11998276704906       -0.00627905717972
H           -2.41739487380499       -2.44600430102645        0.61160455924037
H           -4.16022644098216       -2.20322905756972        0.78123215172861
H           -3.53647260886767       -3.24717541511782       -0.50200785437025
O           -1.77970790065956        0.40234794286649        0.18740863367667
N           -3.89697732787663        0.87977998100778        0.56265487700270
H           -7.19391826971650        0.37862799541202        1.97914901208304
C           -5.31136088028295        1.00703271458032        0.61280605594597
H           -5.50355580191369        1.35847437662609        1.63884522856448
C           -5.68696019678122        2.14455681584578       -0.37268662747168
C           -6.26564424526730       -0.14189097399769        0.34057976103630
H           -4.95339226878822        2.94088293394204       -0.23900693182305
H           -5.57071513676298        1.73989936593782       -1.37971923008595
C           -7.10011204800731        2.71439621926328       -0.20943587001965
O           -7.28714778213743       -0.26605047388254        1.26624352322339
H           -7.82516692471599        1.89334892015566       -0.17932934561880
C           -7.23233124512550        3.54596334983856        1.06544212449568
C           -7.43442020634367        3.57998533325889       -1.42337416170472
H           -6.55021505160542        4.39234570809188        1.03055414833315
H           -8.24643936941899        3.92687818907725        1.16286482140249
H           -7.00361660941007        2.96734949303981        1.95790412304463
H           -7.41739203945023        2.98551048702588       -2.33342133286303
H           -8.42561106719555        4.01449056756921       -1.31858382979758
H           -6.71248244785996        4.38736630130879       -1.52345575907485
N           -6.15614699668326       -0.88481640027953       -0.65884657703046
H           -8.64125907882186       -0.59425064182640        0.08967581079812
C           -7.02228952216531       -1.97205337443465       -1.04329454825203
H           -6.50957432161777       -2.46872523677324       -1.87578266749257
C           -7.30618868684342       -3.00550402871525        0.05392830079943
C           -8.35705432060260       -1.45498227480190       -1.60438114111321
H           -7.85189000107484       -2.56974781944777        0.88764831197847
H           -7.89336901975529       -3.81914642006960       -0.36495056767278
H           -6.36712483022099       -3.40683708247562        0.42814664143481
O           -9.08414303119327       -0.71117168222713       -0.77222876238531
O           -8.73071271666214       -1.71519324827670       -2.71170200697834
