42
 energy: -62.486133508498 gnorm: 0.000480900831 xtb: 6.7.1 (edcfbbe)
N           -0.96935094394716       -1.35902877127865        0.31273029365614
H           -0.64573380704008       -0.83672333610466        1.12024966483359
H           -0.15573311484303       -1.66301144805844       -0.20869311736965
H           -2.58450085790345       -2.16029203257392        0.88589843423887
C           -1.84551570301979       -0.53750842248198       -0.52185103965794
H           -1.53220674117366        0.51181439202712       -0.59951003764932
C           -1.94030561083045       -1.13691008786720       -1.92542229487513
C           -3.23428551774508       -0.57883149347547        0.10093578928844
H           -2.25918752494087       -2.17580908703028       -1.86918197001591
H           -2.66309705067742       -0.57670551674881       -2.51075567246221
H           -0.97356127446403       -1.09345955851225       -2.42264631035428
O           -3.44445154582258       -1.68603981786130        0.85992181599421
N           -4.01461335580716        0.36909816657559       -0.12056873471551
H           -5.13070109076802       -1.58393132894793        1.49062466396013
C           -5.39531332361192        0.58256325364342        0.24063343051129
H           -5.38820435931375        1.00502646963418        1.25977177933205
C           -5.92569484897907        1.64778866808341       -0.72970225215721
C           -6.31358271547148       -0.62781318526444        0.31489826841762
H           -5.11332293890029        2.35549492624736       -0.89924285337054
H           -6.14354029087990        1.15693253977397       -1.67796737591009
C           -7.16471210195856        2.40190510773088       -0.23473394690946
O           -6.06427225318930       -1.58696285073183        1.21999935584240
H           -7.87485436398082        1.67800704314802        0.17481256245987
C           -6.80448441194137        3.40779194499154        0.85703984193090
C           -7.82836760266025        3.12730587706223       -1.40409894344537
H           -6.10807743729773        4.15013303991532        0.47250745081280
H           -7.69663685508921        3.92360190496951        1.20474238765514
H           -6.34549397994618        2.91949018331689        1.71323634738409
H           -8.15000349976137        2.42379987233038       -2.16794861991856
H           -8.70001574545789        3.68078421431767       -1.06282824271530
H           -7.13198612957724        3.83102854001250       -1.85530117158314
N           -7.34019992611400       -0.64375459304822       -0.41814265519180
H           -8.25557339477463        0.00077483387209       -1.82746609729581
C           -8.29949301516762       -1.72127733219335       -0.37320110144765
H           -7.81520329629354       -2.70475662669914       -0.32079102810280
C           -9.25225563817854       -1.57673160522184        0.81935851245097
C           -9.12875228395847       -1.63408299928299       -1.66303899368915
H           -9.72326095152019       -0.59558177613570        0.80239148815436
H          -10.02154923553949       -2.34137017032168        0.76017282727231
H           -8.69907559227190       -1.68973119500607        1.74835166523185
O           -8.94683368489062       -0.49835449987440       -2.32634408451607
O           -9.88218724797527       -2.49669919444837       -2.01990481071732
