42
 energy: -62.486133511393 gnorm: 0.000480045713 xtb: 6.7.1 (edcfbbe)
N           -1.29293458617148       -0.88977162495854        1.05507673520423
H           -0.32057178716183       -0.57181132222878        1.08722235938886
H           -1.30785566528963       -1.88371553938062        1.21589325910002
H           -3.22422513125410       -2.57102880485554        0.07506331149212
C           -1.92316355800440       -0.51584456100975       -0.20179674620521
H           -1.72459301194366        0.55376212311693       -0.35072557312456
C           -1.43312294595698       -1.31587202625670       -1.42631219749535
C           -3.43512664624938       -0.64753739422655       -0.05932927412043
H           -1.56572158537043       -2.39036892838417       -1.27999814258985
H           -1.97428055609565       -1.02206950905657       -2.32627579974339
H           -0.37395236462445       -1.13177124086280       -1.59028226793218
O           -3.93729427507182       -1.92796045442830       -0.01033600640822
N           -4.08702697485629        0.39711612025902        0.12476981296262
H           -5.23896485756876       -1.14052569034488       -1.54315015243199
C           -5.49914390652547        0.66008275937416        0.08510651351409
H           -5.76037406649059        1.03198225365665        1.07952502134254
C           -5.70174476716602        1.82257260958562       -0.91017659279892
C           -6.45965927440822       -0.46594559220368       -0.23322097041871
H           -4.92471023825976        2.55527740133052       -0.69070245391660
H           -5.53162030469352        1.45568397949280       -1.92192328894572
C           -7.07425961184639        2.49765310019483       -0.83916883727119
O           -6.12838044374365       -1.33610368328667       -1.20722676324840
H           -7.84695554093136        1.74982292484027       -1.04293683970393
C           -7.34080325113882        3.10849637924221        0.53365559597400
C           -7.15353937715926        3.57837704673393       -1.91583840306005
H           -6.52098312575279        3.76358165277100        0.82372368350089
H           -8.25682535709491        3.69405954143478        0.51141463927534
H           -7.45671486971916        2.33855943508558        1.29144404549641
H           -6.95415698687690        3.15918352951224       -2.89879731712160
H           -8.14316988992545        4.02681569439642       -1.93086097921257
H           -6.42405004854255        4.36118749522526       -1.72120316964256
N           -7.62767330868317       -0.43334364947734        0.24465379292151
H           -9.05046673772269        0.48578801001192        0.93529369736408
C           -8.58606341873339       -1.44334404259435       -0.16474914767624
H           -8.53829410164923       -1.62059893413391       -1.24788524092091
C           -8.32701630249443       -2.76831298343333        0.55931799220551
C           -9.98985362717038       -0.93537582813076        0.17279925943160
H           -8.33934166272199       -2.61061129652945        1.63592915668569
H           -9.09643479482850       -3.48602338643379        0.29337576272096
H           -7.35341196027799       -3.15496405031128        0.27088872442294
O           -9.99369178452819        0.22296170314968        0.82562426156575
O          -10.98832917322638       -1.53540342614488       -0.11668109804861
