42
 energy: -62.486133512283 gnorm: 0.000479915647 xtb: 6.7.1 (edcfbbe)
N           -2.46756208898214       -0.56416156300726       -0.68215355739913
H           -2.43181784437614        0.32754715430686       -1.16486818019644
H           -2.15651864876746       -1.28194736001583       -1.32718274407085
H           -2.33810992550158       -0.21689374731593        1.40641269718803
C           -3.82232230423678       -0.85152886188898       -0.20286421694220
H           -4.58907683319489       -0.78345904044995       -0.98934869659449
C           -3.82351572357661       -2.25702948229035        0.39531787625879
C           -4.08633521231359        0.20645783150864        0.87269362832281
H           -3.09872549674306       -2.32958787159460        1.20301271672679
H           -4.80467163361498       -2.49955866911014        0.78418806078939
H           -3.55667629263631       -2.98436083704322       -0.36992753297746
O           -3.08740907887136        0.29667717518994        1.75668781189429
N           -5.00391492040026        1.06379779549790        0.96698104152369
H           -8.14382490313286        0.91147407233579       -1.21673493445477
C           -6.19019771375203        1.17215375458596        0.17475296310680
H           -6.84448452649271        1.84570742171783        0.75141222022025
C           -5.88145208758425        1.84329383414882       -1.19502010659978
C           -7.00944302381654       -0.08642036863624       -0.01932521552955
H           -4.80633850688569        2.02635865076063       -1.24189301517311
H           -6.12621191576195        1.15842039920387       -2.01301920285174
C           -6.60332641733273        3.18114904001165       -1.40636207363590
O           -8.06780588904625        0.01882330055132       -0.85633685600911
H           -7.66426160674065        3.07017778250743       -1.14302193662666
C           -5.99590326934456        4.25907973716123       -0.51260983999210
C           -6.51807745421416        3.59806826265055       -2.87381307901123
H           -4.97589724693648        4.47127820217313       -0.82446849174474
H           -6.57345888720620        5.17814005863538       -0.57701141262160
H           -5.96954792563490        3.93561875993707        0.52441646087039
H           -6.99485202238475        2.86354690942349       -3.52045461818382
H           -7.01121115259891        4.55519573617298       -3.02394468978168
H           -5.47851654730280        3.69873072609094       -3.17756581031023
N           -6.77431112010688       -1.13209449031998        0.63917773716527
H           -6.28502515043978       -1.73106146956471        2.33697147314175
C           -7.64281546693950       -2.28623868514955        0.54766517718020
H           -8.69889288542268       -1.98038193981461        0.57705289081854
C           -7.42049727724408       -3.10668135561298       -0.72478719964910
C           -7.38809676581310       -3.15630029820123        1.78793537862603
H           -6.36891892492595       -3.36177811224353       -0.83189476115575
H           -7.99992931896142       -4.02282710606673       -0.65505311860124
H           -7.74134270517971       -2.54049020603501       -1.59540237832741
O           -6.58129387655226       -2.60047847074445        2.68640455242738
O           -7.88356381603914       -4.23813745521518        1.93548968944291
