42
 energy: -62.486143125425 gnorm: 0.000732957758 xtb: 6.7.1 (edcfbbe)
N           -1.54726819640507       -0.67037879508197       -1.79315714838907
H           -0.90562117852813       -1.36557139317009       -2.15489007973424
H           -1.00240799465812        0.00170455194970       -1.25965554755822
H           -3.03588143894381        0.40055857653667       -2.39801509357485
C           -2.55428489402580       -1.28819462227778       -0.93070925004813
H           -2.96053526974756       -2.15108414009667       -1.47352215398077
C           -2.03552796847723       -1.74850220675095        0.42847516213000
C           -3.70843183187108       -0.29979415737554       -0.79391758315012
H           -1.60263274986270       -0.90910540288486        0.96879337125853
H           -2.86299751582624       -2.13915987021288        1.00957190260938
H           -1.27852201464288       -2.52101482185089        0.30699186334161
O           -3.80146032626557        0.57018385224586       -1.81258264831913
N           -4.46067545396200       -0.40221317689237        0.20444109340862
H           -7.83977818704407        0.43053793486696        1.50403140992323
C           -5.63790908062219        0.37826656231433        0.47773639632849
H           -5.65341808038214        0.47701128160232        1.57401306517342
C           -5.69278150562603        1.77922039337642       -0.16753229987051
C           -6.84307142015323       -0.43899945277445        0.07018511773252
H           -4.72876628228096        2.25844685072450        0.01690584141865
H           -5.79601307727082        1.64691339969986       -1.24461173884618
C           -6.80685915253948        2.70711769274695        0.33149227908085
O           -8.00171818326857       -0.19852137587892        0.79060843779442
H           -7.77990243091445        2.22282690356915        0.19237658043009
C           -6.63446944855801        3.08494341034730        1.80304597748647
C           -6.80805382897189        3.97671190136639       -0.52037022799965
H           -5.68079368668551        3.58773638840967        1.94930006627671
H           -7.42718397043595        3.76310033000783        2.11225415134015
H           -6.65985645677408        2.21900401775248        2.46260904069835
H           -6.97326142520849        3.73419681083215       -1.56702174148700
H           -7.59598408414261        4.65300473462206       -0.19643200843205
H           -5.85445890060882        4.49287870835692       -0.43365522721826
N           -6.74798493367422       -1.27051433043764       -0.85579089667520
H           -9.12483055614308       -0.28779467726033       -0.63035320834496
C           -7.77394678037820       -2.14528666898624       -1.35867189502132
H           -7.26281976616230       -2.81715954801531       -2.05799639574475
C           -8.47665131417572       -2.98342703819778       -0.28150055342281
C           -8.84058436761502       -1.39679710328157       -2.17261114995817
H           -9.05099453339762       -2.35910433893680        0.39945823381693
H           -9.14595890473826       -3.69593623497168       -0.75729912564128
H           -7.73005611256153       -3.52667615573589        0.29332150311698
O           -9.45885607132206       -0.39949081794322       -1.54036230583875
O           -9.12298188357464       -1.70166400361342       -3.29601811709399
