42
 energy: -62.486133507157 gnorm: 0.000480983675 xtb: 6.7.1 (edcfbbe)
N           -0.71845588359525       -0.08430524806149       -0.06981482887139
H            0.14907026859682       -0.28899291073958       -0.55034977735094
H           -0.66993432687737       -0.51619264317511        0.84875779875957
H           -1.86940308996474        1.43057972719497        0.26506714444199
C           -1.86549097923144       -0.60971976879628       -0.80797527247802
H           -1.74012815388384       -0.30829162849619       -1.85659651183531
C           -2.02798745795048       -2.12726970090706       -0.73961196635337
C           -3.09625431264665        0.12632388796765       -0.29327349410182
H           -2.22893060401722       -2.44013610142770        0.28290984762021
H           -2.85415294242313       -2.44185140194723       -1.36855206838729
H           -1.11938046104099       -2.61618411328796       -1.08602178401663
O           -2.84299842436126        1.32801999291987        0.24267733754983
N           -4.22749475628700       -0.41240028983594       -0.39684469643950
H           -5.10353277147334       -1.97062846894310       -0.54010431927360
C           -5.47279403600079        0.21905933936355       -0.00291126450874
H           -5.45894889895600        0.44415489497116        1.07115444090262
C           -5.66849278078401        1.52846943383637       -0.79041802515030
C           -6.54611639142634       -0.82996344114571       -0.26366867974675
H           -4.83476024827144        2.17974122128506       -0.52117733458121
H           -5.57781506743366        1.28955291554929       -1.85327165575960
C           -6.97244409096583        2.29839501739487       -0.56754840543946
O           -6.08025366527976       -2.06493822836331       -0.48834446979830
H           -7.78664972817024        1.74443883410492       -1.03801687100646
C           -7.28745080268880        2.48645347818341        0.91330025000180
C           -6.86349673496915        3.65854538675308       -1.25681287712897
H           -6.45828023237979        2.97773290552260        1.41905256955096
H           -8.17392945781211        3.10533081933989        1.03068319948573
H           -7.47363642283596        1.52921187603276        1.39273600413237
H           -6.62480641796004        3.53823624906327       -2.31100710617666
H           -7.80481674531818        4.19666819730244       -1.17938636807715
H           -6.08407788301677        4.26114534478520       -0.79431373686740
N           -7.77054662597499       -0.52660555802595       -0.29894620042081
H           -9.20663339598652        0.63511016891367       -0.07014304107057
C           -8.76898381806873       -1.54230248068888       -0.56304848400264
H           -8.51245553658723       -2.13967804498416       -1.44665083672543
C           -8.96154403933022       -2.48706813858785        0.63053494151526
C          -10.10308682012798       -0.82840231591519       -0.80714328281572
H           -9.18931454889102       -1.91257672664595        1.52673248536136
H           -9.78452090855194       -3.16549779147548        0.42404523149698
H           -8.05350658283148       -3.06059406750248        0.79671867409055
O          -10.11635804663804        0.43049830083264       -0.38275674538028
O          -11.05539743849921       -1.36609479937857       -1.30072480393644
