42
 energy: -62.486133480048 gnorm: 0.000490324343 xtb: 6.7.1 (edcfbbe)
N           -1.73592353326442       -2.02398068683842        0.27221669700360
H           -1.21240950592674       -1.51542610961730        0.97716686315239
H           -1.08912888050771       -2.62901638694655       -0.21981991328740
H           -3.52255607520713       -2.12845235650885        1.04669649029956
C           -2.38364010013166       -1.09856281783148       -0.65744373563090
H           -1.75590598056345       -0.24572069923794       -0.94921394246727
C           -2.82696133603709       -1.84960490530859       -1.91363153002668
C           -3.63238699675888       -0.56972364156591        0.01861943424383
H           -3.44572452934035       -2.70068360769922       -1.63905552404003
H           -3.40976232283862       -1.18404863142937       -2.54212533807563
H           -1.96223736696362       -2.20540017877617       -2.46996876710426
O           -4.14796755092847       -1.37977060544006        0.96247811273876
N           -4.10885787057532        0.53629998665041       -0.33930490990548
H           -7.13228441700127        0.57572244145929        1.83303259544373
C           -5.36668820661803        0.99611954635777        0.20378167735166
H           -5.22023157660329        1.28060870435520        1.25756583200594
C           -5.79165179312251        2.21904156645197       -0.62628596899345
C           -6.43524818086706       -0.07016668229513        0.12994352182189
H           -4.94919934067009        2.91178713048715       -0.63765299261516
H           -5.94360360115730        1.86317228327746       -1.64590097439302
C           -7.05147752310174        2.94112492469831       -0.13887318928302
O           -7.36681425588921       -0.06640754128788        1.15252335395334
H           -7.86123189536070        2.21341163269362       -0.01349263972240
C           -6.81688161995811        3.66272255007610        1.18809646769230
C           -7.49589079571281        3.94942622679211       -1.19723457700478
H           -6.03843111259727        4.41372431917397        1.07155187351600
H           -7.72743289423663        4.16178632128661        1.51257788257169
H           -6.50942134918314        2.98006523915136        1.97810270869431
H           -7.72011030699013        3.44533487199274       -2.13372474834911
H           -8.38861218756347        4.47755032570599       -0.87030313585955
H           -6.71019513224282        4.67963527070235       -1.37811189675927
N           -6.44835434174482       -0.86136618408818       -0.83579976007393
H           -8.80558956930624       -0.42453519815038        0.12346124154811
C           -7.36590491071969       -1.94487971335828       -1.06982524427294
H           -6.95358317991079       -2.49175785111523       -1.92616928915038
C           -7.51738488745491       -2.90683196031575        0.11661977016177
C           -8.76053249815380       -1.46029551723075       -1.49342943676714
H           -8.00537910933587       -2.42468950241494        0.96083573358461
H           -8.10572486459903       -3.76902423665935       -0.18756354108980
H           -6.53212449458559       -3.23991809106189        0.43489584095105
O           -9.36166498712294       -0.61607735112979       -0.65549144594468
O           -9.29108016998417       -1.83321905991614       -2.50080844743306
