42
 energy: -62.486133515795 gnorm: 0.000479056064 xtb: 6.7.1 (edcfbbe)
N           -1.81840469455411       -1.15634299793767       -1.92999567158497
H           -1.14813814492060       -1.89363786933911       -2.11163789900508
H           -1.30288065439207       -0.28310167897423       -1.86182300280437
H           -3.54252504985193       -0.51035708682072       -2.55257300760827
C           -2.54007669585606       -1.40243850141892       -0.68275867826596
H           -2.90340322936149       -2.43791203440329       -0.72003697706517
C           -1.71014694272020       -1.20696702545668        0.58367254138742
C           -3.78190677877980       -0.51499510029518       -0.69228895559925
H           -1.31630185082706       -0.19349106655269        0.61970808996734
H           -2.34115220328778       -1.35818933817564        1.45223260540046
H           -0.88112727784877       -1.91174354232987        0.60942971091022
O           -4.18611782130026       -0.14767925953413       -1.91181681130126
N           -4.31039898695842       -0.22149354824227        0.41098528008592
H           -7.23015021251069       -0.19525388230487        2.15735442306453
C           -5.53707912484977        0.52816173637918        0.55752515273328
H           -5.55039523898407        0.82326757491153        1.61716022391922
C           -5.65707666259137        1.78206045756479       -0.32370839581856
C           -6.71072574090458       -0.38740407540451        0.28704815062127
H           -4.73825587437166        2.36366246277116       -0.22247409000348
H           -5.74242437664592        1.44520006978479       -1.35582912709865
C           -6.86570385640092        2.65666408010105        0.02895964583466
O           -7.56464248340820       -0.61218347677884        1.35396247639348
H           -7.74799077174038        2.01479312232028        0.13555485060667
C           -6.65285205656867        3.42709959718152        1.33124513114200
C           -7.13530145138013        3.63631439799765       -1.11144825906489
H           -5.79644777344324        4.09169630205243        1.23758166277079
H           -7.52903358275172        4.02947030384695        1.56062734996094
H           -6.47417411932885        2.76069290910883        2.17220807596346
H           -7.35376206128600        3.09883320599944       -2.03058688598840
H           -7.98582484260709        4.27181048349069       -0.87552663275451
H           -6.26741239802279        4.27058735165515       -1.27930120567395
N           -6.85439026612327       -0.88820431304523       -0.84688194714165
H           -9.09531484792723       -0.54506850789137        0.38006710500856
C           -7.87951212620993       -1.79703028776114       -1.28441904952141
H           -7.56915699743491       -2.12321378885635       -2.28390198893040
C           -8.06497180777059       -3.02892881238732       -0.38749612824961
C           -9.23959918188744       -1.10244362813382       -1.45391386317691
H           -8.43443092966934       -2.75382856550815        0.59801515860979
H           -8.77215045430533       -3.71147938716501       -0.85230560204572
H           -7.10922643647378       -3.53478950946654       -0.26877413880210
O           -9.70639202072778       -0.47063048085292       -0.37690194229079
O           -9.85921323734357       -1.14353203772070       -2.47800216316706
