42
 energy: -62.486133516864 gnorm: 0.000479416475 xtb: 6.7.1 (edcfbbe)
N           -2.75107428672815       -2.27209903899254        1.21989232125041
H           -3.15976067733130       -2.35115683899551        2.14562932986009
H           -1.78288403057078       -2.56386188690243        1.27782796607296
H           -4.29361541553338       -2.55976731417674        0.15425611552119
C           -2.85640185653789       -0.90372180874747        0.72059790769703
H           -2.59484844156375       -0.13523981048999        1.46068080038502
C           -1.96425568515463       -0.73678695785522       -0.51002102391768
C           -4.31002385263756       -0.69417385724150        0.30455765278308
H           -2.22344039910955       -1.47838958443277       -1.26243229677638
H           -2.10288502502587        0.25582684082407       -0.92714722548696
H           -0.91761151916050       -0.86284943703605       -0.24101073616793
O           -4.92615798028077       -1.83547352961388       -0.05055953957614
N           -4.73425941364486        0.48269726414350        0.26612730709595
H           -8.17216726650977        1.36311452980642       -1.18290296860770
C           -6.02632466965731        1.01152087627204       -0.07018062285129
H           -6.22774343956337        1.74866011889615        0.72326467388131
C           -5.87398827529209        1.76920849469779       -1.41380284707835
C           -7.23311583553558        0.08839109363058       -0.07766802422386
H           -4.80520900282178        1.83386642276595       -1.62567732090590
H           -6.31840938369185        1.17556232804902       -2.21779597679551
C           -6.44899901822664        3.19434531119655       -1.41215472601294
O           -8.33053183859277        0.51530984237807       -0.75027986799394
H           -7.41987143595167        3.20950699795076       -0.89833874929695
C           -5.51285601116950        4.14363559753475       -0.66764766566599
C           -6.65795403624305        3.67815434673293       -2.84643189367408
H           -4.56942328471385        4.23379166169634       -1.20107589377333
H           -5.95779461488669        5.13264357256809       -0.58559026524487
H           -5.30212253968351        3.77545153221327        0.33304458654425
H           -7.36643538903807        3.04506712214501       -3.37764083213751
H           -7.04064821050946        4.69596644932904       -2.85205238811578
H           -5.71506724726158        3.66457831664227       -3.38839586231209
N           -7.22627538101741       -0.97389369069187        0.58994002581602
H           -6.26784171024400       -2.31929184355194        1.40043291867287
C           -8.35822467867730       -1.86298515532171        0.68092400297959
H           -9.26965962075761       -1.33344951099692        0.98380153814051
C           -8.62164592072482       -2.60136853709868       -0.63753629679804
C           -8.00174523267824       -2.91473345044028        1.74060797613740
H           -7.70749589905021       -3.08570944387170       -0.97559464796488
H           -9.39165398472916       -3.35239224634312       -0.48376795755808
H           -8.95139467353515       -1.89705631069548       -1.39677524988952
O           -6.69649386081408       -3.01197999069596        1.96056645350298
O           -8.81788024233580       -3.60294430245937        2.28926480486114
