42
 energy: -62.486132265265 gnorm: 0.000628301146 xtb: 6.7.1 (edcfbbe)
N           -2.32080253509800       -1.85940873238064        1.48006809827797
H           -2.09739073716070       -1.26313361857273        2.26960540500706
H           -1.53690020592736       -2.48163370701540        1.32550055702528
H           -4.23030859065207       -1.98039058494082        1.59804268794262
C           -2.59853189848010       -1.06122878766879        0.28825910320148
H           -1.92703249283035       -0.20150852018198        0.15879089325650
C           -2.52218603214191       -1.94752827173967       -0.95572669993909
C           -4.02527271616501       -0.54273452584710        0.41781237706295
H           -3.19958233978289       -2.79313391182929       -0.85567914175537
H           -2.80210303240574       -1.37090243501977       -1.83212888266399
H           -1.51037315564900       -2.32418504286542       -1.09122470677998
O           -4.81092780791494       -1.29584165593362        1.20044727940365
N           -4.32698575049074        0.51499319165183       -0.18775222791975
H           -6.53316240522277        0.44512349945013       -2.43786160885694
C           -5.64931008733336        1.10903828803782       -0.25120838495757
H           -5.89002726279384        1.49983541235428        0.74641865086587
C           -5.57955848166644        2.26823880266482       -1.25099662552620
C           -6.71431056419848        0.07626721640042       -0.56315875167728
H           -4.79923863429084        2.94438453624414       -0.89808952506562
H           -5.23739078840658        1.89157322056491       -2.22075835026853
C           -6.89063798445016        3.04762157992949       -1.41727691843095
O           -7.02572725082640       -0.15125533460491       -1.85966269288377
H           -7.69920642884047        2.35646051160316       -1.68183607817033
C           -7.28495223366077        3.76060365527677       -0.12564225939397
C           -6.73812680842144        4.06303510958924       -2.54947897391804
H           -6.47708106760975        4.40443739979239        0.21543945769292
H           -8.16606392577550        4.37589463079679       -0.29272993587314
H           -7.51820676621195        3.04725381530371        0.66039738653337
H           -6.48336955587497        3.57081684883733       -3.48603539616523
H           -7.66518373366147        4.61192568030292       -2.69570135554285
H           -5.95149901941465        4.77609337038322       -2.31286859691471
N           -7.20025250044100       -0.58104753180841        0.38971335610286
H           -6.90620932483546       -1.20658225365805        2.09524026032649
C           -8.14455114065891       -1.65961713716087        0.24058232188109
H           -9.07477188565258       -1.31243809054296       -0.22486525505210
C           -7.59441793121207       -2.84336981688395       -0.56548264384410
C           -8.44831489095503       -2.16920217398825        1.65862699090466
H           -6.64599852611778       -3.16616287381551       -0.14012602044946
H           -8.30346897771026       -3.66554992564478       -0.52223622864527
H           -7.43955353317615       -2.55332305503676       -1.60107337666379
O           -7.54812075580990       -1.79607994185361        2.55748268074807
O           -9.38908145436415       -2.86936474984867        1.91610848564805
