42
 energy: -62.486133496519 gnorm: 0.000483216211 xtb: 6.7.1 (edcfbbe)
N           -1.34369958016416       -1.34788600726971       -1.28691514403476
H           -1.08656516716538       -2.12692033870031       -1.88190512024136
H           -0.90436625034297       -1.49658367832291       -0.38221952584350
H           -1.42208039383816        0.55327225762204       -1.25621325402370
C           -2.79630295680154       -1.27395477335944       -1.12066495712803
H           -3.25128831166683       -1.37438980383193       -2.11295317447747
C           -3.37895833907433       -2.33698786389486       -0.19391486919511
C           -3.14953258058400        0.14290833543384       -0.63339975745036
H           -2.95552646411754       -2.24019602904017        0.80480627865299
H           -4.45303820162842       -2.19767760819682       -0.13733022607015
H           -3.16554535973760       -3.33477956276651       -0.57355529825130
O           -2.17041611848886        1.04875359398767       -0.86613024589811
N           -4.17773016537559        0.45554296423058       -0.03591759845446
H           -7.56244390938629        0.55100338217642        1.53941429784241
C           -5.44668073305059        0.82203401694091        0.37764874463176
H           -5.39799408614379        0.97618449550360        1.46620134017775
C           -5.84731942675313        2.15260204038657       -0.31961109645285
C           -6.51062065335240       -0.23240474726317        0.09643276025675
H           -4.99310426197803        2.82358571307966       -0.21391913341264
H           -5.96020914099779        1.92859964797982       -1.38203349426592
C           -7.10888226752546        2.85908450567059        0.18765265399276
O           -7.64711104935474       -0.15346509888682        0.88509459423659
H           -7.96970895606225        2.18566913126374        0.10813953000174
C           -6.96039818964242        3.32867816767477        1.63516204224910
C           -7.39636481523310        4.06346636037639       -0.70928995782646
H           -6.12779009072929        4.02386909387180        1.71590490681271
H           -7.86416987551614        3.83981514860989        1.95992270426368
H           -6.77561689456698        2.50678636145705        2.32550235679866
H           -7.54831964368016        3.74641851037804       -1.73788095031232
H           -8.29247396206799        4.58130863598240       -0.37492180227874
H           -6.56428746422149        4.76322211399024       -0.68400567433090
N           -6.33240251287466       -1.08851477764982       -0.79498084800763
H           -8.83147807670200       -0.50277740210496       -0.45005391599191
C           -7.23046980369195       -2.14464206774922       -1.18926588784841
H           -6.65853040664117       -2.76502587684426       -1.88918085860387
C           -7.73208530228450       -3.02294171867162       -0.03472230586006
C           -8.44184624209546       -1.61130176953624       -1.96997976354324
H           -8.35984230214882       -2.46085006770432        0.65288031875816
H           -8.30594307316271       -3.85394853968548       -0.43695492570678
H           -6.88149860538488       -3.41656268985669        0.51757057827949
O           -9.18565900880873       -0.70503781041763       -1.33643162342666
O           -8.71789046619117       -1.99798252952492       -3.06904645080566
