42
 energy: -62.486132368582 gnorm: 0.000607466559 xtb: 6.7.1 (edcfbbe)
N           -1.51262435706801       -0.07995083020975        0.71275722841351
H           -0.68148219182653       -0.65126941023542        0.61823395614100
H           -1.60536055389551        0.16120965168264        1.69583576148809
H           -2.35867417584162        1.41097030791034       -0.14647785993372
C           -2.70083482901183       -0.81590782254517        0.27455345553780
H           -2.46324870446191       -1.25291339530547       -0.70457816561185
C           -3.15033099099084       -1.92260649726534        1.22278566936611
C           -3.79649208157955        0.21462729805553        0.03199107991346
H           -3.46098249795832       -1.50034355917654        2.17508284014647
H           -3.99263861076072       -2.45355762013505        0.79541149830767
H           -2.33583248285421       -2.62425858684309        1.39341201262981
O           -3.32951991628041        1.44535998853067       -0.26741048796088
N           -4.99762553165039       -0.13249033921375        0.11876284695053
H           -8.42086996630330        1.30846459872480       -0.76383542454383
C           -6.12837287792721        0.72513993747527       -0.12897904957664
H           -6.23700831895606        1.40671984873054        0.72974773848457
C           -6.06392138017323        1.56249905941601       -1.43007002385232
C           -7.35390226549931       -0.16966540217316       -0.14145071283821
H           -5.03036317061104        1.59187406264843       -1.77152050963545
H           -6.64029935851094        1.05222003602406       -2.20741427103809
C           -6.55492485255023        3.01084996859975       -1.27758907741018
O           -8.53199254772310        0.38226587368899       -0.51490861960350
H           -7.48896264245920        3.03578142356824       -0.69773579323188
C           -5.52437345623080        3.86030677714941       -0.53806614425340
C           -6.83581739852923        3.60923409697074       -2.65506488116215
H           -4.60082446324985        3.90873036430796       -1.10900647720436
H           -5.89785761477450        4.87150332837912       -0.39218087440522
H           -5.29277011054739        3.43574740511442        0.43524934903877
H           -7.60789481279904        3.04708169316863       -3.17707572166540
H           -7.16844906145226        4.64041728483972       -2.56173211780459
H           -5.93289060864491        3.59441527427648       -3.26104377431298
N           -7.24386620191930       -1.36714442779172        0.21389286944387
H           -6.23857523223231       -2.53960494415328        1.04351352092528
C           -8.33696372519291       -2.30285190579176        0.26923225892728
H           -9.22030701456714       -1.87684616484580        0.76266551314680
C           -8.74150394526748       -2.80530952980759       -1.12022289541893
C           -7.83236427589223       -3.49822034483834        1.09975189122095
H           -7.86518533396221       -3.17560181819168       -1.64822824825622
H           -9.46048224666192       -3.61263770672896       -1.01260622577150
H           -9.18743573467524       -1.99693305166434       -1.69413941257145
O           -6.54809595487531       -3.40963994727371        1.41252493722605
O           -8.53426975752192       -4.41969045650382        1.41486681492054
