42
 energy: -62.486133514183 gnorm: 0.000480079137 xtb: 6.7.1 (edcfbbe)
N           -0.96013572502670       -1.09126768803210        0.49868239788283
H            0.01827515297753       -1.00425289873640        0.25356217222300
H           -1.16023636103296       -2.08224192932525        0.60242637649275
H           -2.20985285433929       -0.31399214424111        1.72923839242036
C           -1.81555884768751       -0.51427664911552       -0.53812177061522
H           -1.37133455813604        0.44345344889043       -0.83574891552077
C           -2.00081866065300       -1.38742705447542       -1.77685904089808
C           -3.15248446507609       -0.18158066323411        0.10868580271856
H           -2.38977167864921       -2.36430498365458       -1.49517437670467
H           -2.71332430684954       -0.91445460091426       -2.44405951631164
H           -1.05321243735920       -1.52175937488379       -2.29406541256544
O           -3.12916917757315       -0.11551511714277        1.45750664574880
N           -4.16131070050704        0.01564348539074       -0.61396120189663
H           -4.95019165183444       -1.84794285652402        0.56599843831749
C           -5.43683028602295        0.41402490498602       -0.05599019476117
H           -5.33811059092183        0.67808133830101        1.01042220342335
C           -5.95866012784874        1.61692110194948       -0.84825201117743
C           -6.37198505573254       -0.77466958173482       -0.12553809006627
H           -5.11483919617175        2.28147220550727       -1.04388626586729
H           -6.32336768847610        1.25147793283020       -1.80784597980596
C           -7.06273768670869        2.39660221321618       -0.12440598591770
O           -5.87921070893253       -1.94909890365481        0.32159091398541
H           -7.75471386095635        1.67937079580378        0.32593823665361
C           -6.48217013135212        3.27916283014087        0.97935351298378
C           -7.83082167766598        3.25905088100635       -1.12424333300863
H           -5.82149887847523        4.03176909479252        0.55328049158218
H           -7.27961293831578        3.78892304768757        1.51501798758625
H           -5.91414567003006        2.69397718605577        1.69842955367094
H           -8.30142485999693        2.64646383682257       -1.88897494262530
H           -8.60742455008486        3.82677143761179       -0.61746228687152
H           -7.15747603915251        3.96112215066754       -1.61176704837872
N           -7.54797058514467       -0.63845460858258       -0.54842727858310
H           -8.73212560342017        0.32309534557665       -1.51205851107695
C           -8.47873548282560       -1.74094097511606       -0.61541626548122
H           -8.00429795162975       -2.65522573499351       -0.99388567075581
C           -9.10449764499040       -2.03791007264913        0.75146121310127
C           -9.59738750665727       -1.32567862092925       -1.58472480992026
H           -9.54355042548737       -1.13172789658525        1.16424990295050
H           -9.88153499314652       -2.78789369995526        0.63407395110952
H           -8.34440076301063       -2.40760907069784        1.43514939645842
O           -9.53571920858889       -0.05088042820939       -1.94728697876558
O          -10.45181487876220       -2.08030353704784       -1.95797666029095
