42
 energy: -62.486133513106 gnorm: 0.000479747418 xtb: 6.7.1 (edcfbbe)
N           -1.44345197352523       -1.52174070478901        0.53860531635142
H           -0.85916245114859       -0.75493654460465        0.85369887196248
H           -0.83601806230279       -2.27021457399704        0.22914933132446
H           -3.02112568988512       -1.34472303978964        1.62627089827585
C           -2.32623217093026       -1.08983147144242       -0.54417155918712
H           -1.85418781279006       -0.40222325798907       -1.25849293815237
C           -2.86136845754944       -2.30652500692262       -1.30087132981702
C           -3.50916266526473       -0.38364287750382        0.09015900143517
H           -3.33591296736676       -2.99966002636714       -0.60932739850693
H           -3.59406327931995       -1.98072942187656       -2.03287943892745
H           -2.05136647559643       -2.82125188902526       -1.81344474640102
O           -3.75383048285111       -0.74599268044852        1.37067261557321
N           -4.16744443915667        0.44637092179506       -0.58116633572276
H           -5.74635538575490       -0.27443578474333        1.95645212034194
C           -5.37990584575997        1.06465040055794       -0.07266584779992
H           -5.17244050593351        1.55997746564877        0.88884047454669
C           -5.81889797619621        2.09186743522091       -1.11941789892582
C           -6.40641538735049       -0.02163789356030        0.16186996091791
H           -5.04456534628152        2.85985170402898       -1.16077115242657
H           -5.83595982112811        1.57657169011891       -2.07874713411459
C           -7.18134693535864        2.74764085461541       -0.87820071301832
O           -6.49597609895486       -0.53976122067563        1.40567047843819
H           -7.95682444832137        1.99318205149503       -1.04825579254191
C           -7.32699349051321        3.29432111477157        0.54032771560339
C           -7.38510161318440        3.86842958625306       -1.89652056372703
H           -6.50278061959791        3.96474885255776        0.77570393126609
H           -8.25629706506721        3.85207218011482        0.63348334944544
H           -7.34646921312420        2.49291618766247        1.27498503794504
H           -7.27193751260076        3.48832489697336       -2.90858730651726
H           -8.37973905660229        4.29740203160921       -1.79915463217100
H           -6.65434295174206        4.65937926205268       -1.74227169980082
N           -7.10718992743455       -0.43076154429424       -0.80380204536401
H           -8.94108645311524        0.52482913352301        0.06656471751057
C           -8.01420331763324       -1.54876354142182       -0.63636220042348
H           -8.61141510352400       -1.58469816432367       -1.56048258381254
C           -7.27645664185521       -2.87604591421912       -0.46770942854469
C           -9.01065229201426       -1.33975388839179        0.51045927147380
H           -6.67773616030530       -2.85160236919542        0.43884674804812
H           -8.00001475662117       -3.68137798437481       -0.38280565109010
H           -6.62928942596644       -3.05028475069266       -1.32369830448909
O           -9.41368863342891       -0.07006188123003        0.67043037287250
O           -9.44878235060692       -2.22390517897327        1.18655164181147
