42
 energy: -62.486133507813 gnorm: 0.000480364381 xtb: 6.7.1 (edcfbbe)
N           -1.50955796197926       -1.70901404368746        0.68390625412001
H           -1.14308615541318       -1.16734057006291        1.45995500565055
H           -0.74035032796131       -2.22806804428547        0.27693904430426
H           -3.32990355470997       -2.08607159006064        1.17720654095236
C           -2.12868266344097       -0.83476780840384       -0.31239315200133
H           -1.59019212357574        0.10831829535058       -0.47445245710765
C           -2.25533120610669       -1.57318539289953       -1.64512396296485
C           -3.52889869290755       -0.50664898091801        0.17988740753488
H           -2.79056781892322       -2.51009914035272       -1.50528215250083
H           -2.80310719757199       -0.95534921162740       -2.34995435540652
H           -1.27050998578227       -1.78970372429688       -2.05383466183187
O           -4.04193976206815       -1.42966740701635        1.02811747632533
N           -4.08156917673306        0.54146976117306       -0.22087176361969
H           -5.71509970691100       -0.57039425725173        1.99843795772497
C           -5.43303865290259        0.97433615586818        0.06421663936652
H           -5.38951874408806        1.54266217589974        1.00618856449997
C           -5.84046201351447        1.91514346885693       -1.07483010357320
C           -6.44216474522303       -0.14057252086532        0.25203855920581
H           -5.01541630965499        2.61252271583982       -1.22578775447630
H           -5.94753860619866        1.30788444965808       -1.97255304028928
C           -7.13969820425298        2.68972741298014       -0.83736447766813
O           -6.55347214570378       -0.65809192229027        1.52532664029451
H           -7.94379388215302        1.97179227827225       -0.65027628030886
C           -7.03654309685440        3.64009444942960        0.35401567712830
C           -7.48651113553440        3.47794992572551       -2.09914799226734
H           -6.18566096053557        4.30823223021930        0.23533080149124
H           -7.93814298255791        4.24357204717101        0.42886611338725
H           -6.92489600662180        3.09821678021998        1.29000591240550
H           -7.59057090276711        2.80841505381652       -2.94875750956175
H           -8.42374514256953        4.01354893598650       -1.96902429869449
H           -6.70464908952168        4.20127839982221       -2.32208172768610
N           -7.16709653921406       -0.47733326444181       -0.71015133732099
H           -8.35444591199236       -0.72665768370811        1.56178754598496
C           -8.17706383791831       -1.50220432131961       -0.72022969886222
H           -8.45591811438919       -1.62260884657383       -1.77376385616773
C           -7.72173561189516       -2.85856309901179       -0.16325964888986
C           -9.45296694898015       -1.07311181699765        0.02167802282101
H           -7.50237598099236       -2.80039799807796        0.90051750289753
H           -8.50435779565881       -3.59588961771404       -0.32364158479997
H           -6.82197114995087       -3.17694396441710       -0.68531472912217
O           -9.28944289616006       -0.68868044534954        1.28604648636055
O          -10.53419753157955       -1.10582484634980       -0.49343641461826
