42
 energy: -62.486133503783 gnorm: 0.000480127956 xtb: 6.7.1 (edcfbbe)
N           -1.14491475190516       -0.65975452762305        0.77001290355992
H           -0.21106513092121       -0.94296206546930        0.49918022766767
H           -1.42668050923065       -1.24512138888251        1.55186226609910
H           -2.18205850323964        0.91811203803558        1.18055646919664
C           -2.08516036435740       -0.82933224066674       -0.33674508754487
H           -1.62228118772778       -0.38313812548752       -1.22698673270491
C           -2.46329771343122       -2.27835689860821       -0.63599824237480
C           -3.31156470361433        0.00993186898377       -0.01091449850687
H           -2.90859402315557       -2.73694709216229        0.24435912489498
H           -3.19256329299093       -2.30643780316421       -1.43811975716836
H           -1.58361188143840       -2.84867045238015       -0.92786638342657
O           -3.10336780258666        1.00649774278349        0.86339927343337
N           -4.41342525678604       -0.25191037269101       -0.55863796142709
H           -5.95641552379757       -0.44125811324279       -2.38489799260606
C           -5.58530989235772        0.55606960447981       -0.27693206491677
H           -5.65917208341951        0.77741000454220        0.79353879654811
C           -5.54815535234382        1.87236131634918       -1.07058051458339
C           -6.75938527225403       -0.30227433472691       -0.68033874831366
H           -4.74930802328018        2.48860867156806       -0.65387373484047
H           -5.28485360855028        1.65311306642233       -2.11046215334440
C           -6.86849554817790        2.64937515194866       -1.04016817922496
O           -6.78923423700167       -0.69640446690651       -1.96538514481733
H           -7.65621899221588        2.02221680948620       -1.47326480209571
C           -7.27512008007897        3.01777196989008        0.38406053256844
C           -6.72986776330132        3.90953539679100       -1.89317514600127
H           -6.46818257875913        3.54959976857394        0.88367630129846
H           -8.15171719661457        3.66099831245831        0.36707461247587
H           -7.52009538005957        2.12941653454127        0.95955540744961
H           -6.45450274584124        3.65909654788920       -2.91553925295838
H           -7.66887978336544        4.45680510835136       -1.91744133028366
H           -5.96319926091082        4.56205874857119       -1.48056449951176
N           -7.58649005601487       -0.67973416480489        0.19088614078369
H           -8.32623827858319       -0.51085049345742        1.83442558650692
C           -8.69409302798741       -1.55152231772971       -0.13820713451673
H           -9.19262534136212       -1.24769588040197       -1.06682019839637
C           -8.24111187032236       -3.00967006322329       -0.27401729169803
C           -9.70148984053534       -1.46340171891568        1.01725971210015
H           -7.70627390552477       -3.31592563843766        0.62279182371656
H           -9.11210400760663       -3.64551577517213       -0.40519534387232
H           -7.58231761385684       -3.11368407903259       -1.13219855520621
O           -9.22859961030263       -0.82343045649214        2.08053719453389
O          -10.79814926079192       -1.94700602548948        0.97008939527839
