42
 energy: -62.486133518282 gnorm: 0.000479409029 xtb: 6.7.1 (edcfbbe)
N           -2.13718614893881       -2.40151685168235       -1.02201596761836
H           -1.19394526144638       -2.76458686117663       -0.96060290083465
H           -2.34156778513575       -2.24023307057268       -2.00443260292515
H           -3.90025677705577       -2.74585002811799       -0.42134402122078
C           -2.26745679336939       -1.14843271503061       -0.28023906341047
H           -1.80087771599316       -1.29934807325072        0.70122535613123
C           -1.62927463095620        0.05888261562117       -0.96276794692242
C           -3.76203893548207       -0.92026769274416       -0.03613673349348
H           -2.06751840196488        0.20341872121842       -1.94818163262863
H           -1.81994368706545        0.94693317619429       -0.37067036083487
H           -0.55539762863510       -0.08378045532699       -1.06845908089734
O           -4.49954670686812       -2.03641563623000       -0.10724136055312
N           -4.12479709680544        0.23544879314479        0.28836379725277
H           -7.04593450109360        0.50925841995447        2.27588497057791
C           -5.44458412248730        0.77475260571713        0.44887377951659
H           -5.40349655122726        1.34549632062901        1.38866130094346
C           -5.66384845506983        1.75747626738235       -0.72045102371692
C           -6.61833325164850       -0.17820723066999        0.49529025023001
H           -4.78370488052296        2.39829565173741       -0.78940170628884
H           -5.72365197476834        1.15310709861290       -1.62637086726775
C           -6.92788883403108        2.61433505745882       -0.59559111618789
O           -7.41041649047044       -0.11124341185160        1.63369404509518
H           -7.77887845703325        1.96235885307676       -0.36857839597968
C           -6.79906946403073        3.66451220859934        0.50636730512024
C           -7.20659659197761        3.30072877531043       -1.93138253734468
H           -5.96170490402899        4.32709060570192        0.29787952621761
H           -7.70488527597169        4.26400671299695        0.56113548056553
H           -6.63906616148274        3.21146949252610        1.48211760226058
H           -7.35768073613887        2.56258243350889       -2.71480899326261
H           -8.10107468083237        3.91537667130151       -1.86419669020117
H           -6.37056250302339        3.93799056769626       -2.21193943659937
N           -6.81790069466058       -0.96240512430674       -0.45443555002114
H           -8.99265891306724       -0.33093016340533        0.78568121929992
C           -7.84915293482965       -1.95764505695233       -0.57221286360491
H           -7.58981414950702       -2.53684507867740       -1.46591857583937
C           -7.94740956378703       -2.90776978681058        0.62862144822545
C           -9.22774077809752       -1.33590792208212       -0.83489710988695
H           -8.29485865459136       -2.39133605179291        1.52093240751627
H           -8.63626988992442       -3.71630378806948        0.39703532262453
H           -6.96203141150207       -3.32166661940518        0.82926250934151
O           -9.64716192652862       -0.45181111872699        0.07141536152658
O           -9.90000692315369       -1.63304433641471       -1.78123019025875
