42
 energy: -62.486133519731 gnorm: 0.000478999456 xtb: 6.7.1 (edcfbbe)
N           -1.32644849456430        0.03432715424267        0.50822687286670
H           -0.50181781085645       -0.41820065878259        0.88821477222834
H           -2.00098701483157        0.15211441556945        1.25700283783933
H           -2.85583585744587       -0.16474870834376       -2.71696823949513
C           -1.91791953797308       -0.78616220500222       -0.53127620977554
H           -1.28740838101315       -0.68333094884609       -1.42809959344754
C           -2.03178323940811       -2.27886412629116       -0.17220832905141
C           -3.30706399564934       -0.26318120541937       -0.82298454056277
H           -2.65642980243800       -2.39008560962730        0.71086595229751
H           -2.47811856036540       -2.84280010881466       -0.98844431066779
H           -1.04466846774757       -2.68815483254851        0.03290067064694
O           -3.63034991893207       -0.07857527718185       -2.14747573759760
N           -4.08453161782059       -0.08312726581879        0.13824494199270
H           -5.29265054873404       -0.85078775231890       -1.97961136568764
C           -5.43153815811133        0.43173131782229        0.11171102977848
H           -5.70002303415840        0.57307071742393        1.16238728517277
C           -5.52565245877130        1.78271567844466       -0.62851344276188
C           -6.43654483589928       -0.53339428929689       -0.47916314276196
H           -4.73334965630296        2.42600724411853       -0.23795914774804
H           -5.32602108555676        1.61729616335745       -1.69015652369446
C           -6.87697723778640        2.48887322535735       -0.48023313170873
O           -6.12752104022013       -1.18290990076097       -1.61166217953734
H           -7.67069488294173        1.79946334871236       -0.78523194498238
C           -7.13938557758667        2.92533992797874        0.95861388662762
C           -6.91177250542093        3.70486031607725       -1.40544130745306
H           -6.35313233995881        3.59539476354414        1.30050505444079
H           -8.08925233161231        3.45025520799237        1.02001703125607
H           -7.18482810860185        2.07190607958054        1.62895114660785
H           -6.76149930704713        3.41002000420046       -2.44169414368804
H           -7.87215626407232        4.20846929188885       -1.33073087111058
H           -6.13112192329848        4.41204465894082       -1.13225309035816
N           -7.55775045548545       -0.63043201973897        0.09109643305755
H           -8.83296320088076        0.16501437782494        1.12606283064011
C           -8.61144093573273       -1.46045241704828       -0.44593007622378
H           -8.62268224628414       -1.45840666700977       -1.54385923125497
C           -8.48191778390922       -2.90629473103600        0.04511858018280
C           -9.94414047469519       -0.89286852708714        0.06398392295384
H           -8.42612621537154       -2.92492584201744        1.13159625400488
H           -9.34941235197355       -3.47454251455714       -0.27839823538846
H           -7.58036003694568       -3.35617183435052       -0.36352460396645
O           -9.80173387112407        0.03325800459911        1.00491718783833
O          -11.01017969032520       -1.26576991255796       -0.33966219962822
