42
 energy: -62.486133510678 gnorm: 0.000480371851 xtb: 6.7.1 (edcfbbe)
N           -2.05462588946170       -1.52242621965040       -0.85756844777055
H           -1.87135403820929       -1.01726677847729       -1.71822988933127
H           -1.96834737844129       -2.51384552930510       -1.05213724830622
H           -1.49407494353720       -0.36167776440124        0.55496482970806
C           -3.38247306562705       -1.20845182878102       -0.33072874778582
H           -4.15644015186660       -1.19416024977903       -1.10825703331976
C           -3.75193418085391       -2.23627985763354        0.74120901956152
C           -3.28286042975323        0.14791208776613        0.38331423652957
H           -2.97095048634336       -2.27456796608243        1.49787325468686
H           -4.68614477451777       -1.95307856628352        1.21744400353983
H           -3.86195451531803       -3.22535155245062        0.30033615122716
O           -2.06218615674165        0.36611414031552        0.88454026645674
N           -4.17348751647317        0.98903034617136        0.66054990986903
H           -5.75842970921578        0.45468393443993       -2.17994590216877
C           -5.50584113190569        1.17689339756191        0.17167011210524
H           -6.06518541362307        1.48372455382373        1.06497809014704
C           -5.47297129380762        2.36879597151784       -0.80248032118531
C           -6.26660334490991       -0.01333340263688       -0.38657204460211
H           -4.94840492650665        3.17360426910025       -0.28555312657883
H           -4.86053934895639        2.11587866163254       -1.67655679379766
C           -6.85240329959867        2.87013783227863       -1.25164761269361
O           -6.21846750182553       -0.25915511331903       -1.71883773973313
H           -7.40533636655579        2.05699546854255       -1.73687828680935
C           -7.68286978712607        3.36541393032063       -0.06992162281372
C           -6.66774432506378        3.99615155699254       -2.26891991796222
H           -7.12585408908558        4.10269860027857        0.50327691188067
H           -8.59894129749424        3.82908936905399       -0.42810881844141
H           -7.95862470150140        2.54638002419356        0.58901739799878
H           -6.08887938839887        3.66037217140958       -3.12721972270771
H           -7.63272511781388        4.34637557886454       -2.62654440457146
H           -6.14675092120275        4.83400335015852       -1.81144797623288
N           -6.94345268248204       -0.72555876340021        0.40227111605089
H           -7.83488806961672       -0.86099965813239        2.00616746234086
C           -7.79092012667941       -1.79530208146603       -0.07612607537776
H           -8.25721892489994       -1.53651838904209       -1.03584641889169
C           -7.04858186262656       -3.12489955998778       -0.24157655837231
C           -8.89700021200820       -1.99984142450677        0.97121016986496
H           -6.58730212462005       -3.41893547095263        0.69833640893970
H           -7.76068263145575       -3.88956457071467       -0.53913420401990
H           -6.28170902728377       -3.03111351453517       -1.00630802109566
O           -8.66915302392588       -1.37065673744474        2.11751656826664
O           -9.86161898826348       -2.68303870807471        0.77168276732940
