42
 energy: -62.486133510359 gnorm: 0.000479955325 xtb: 6.7.1 (edcfbbe)
N           -1.23521669699325        0.13547805418899        0.23810326232810
H           -0.34460685390184       -0.24289871414547        0.54351199584759
H           -1.79628861638535        0.32225457441636        1.06267411816070
H           -2.83909324998062        0.04818509885108       -2.71304756681357
C           -1.92976882619289       -0.83170913460557       -0.59658653576421
H           -1.37453898507454       -0.89845658418631       -1.54398736785314
C           -2.04102131061305       -2.23483106753966        0.01794239751581
C           -3.31923925621595       -0.28871351052750       -0.85705180980116
H           -2.61974332701719       -2.17999134232050        0.93603922938364
H           -2.53983484861292       -2.91553520776647       -0.66763881127427
H           -1.04967193660633       -2.62569104529251        0.23737889158898
O           -3.62752368639036        0.03432160416953       -2.15622506006507
N           -4.10773325207298       -0.20078360888961        0.10909972743497
H           -5.27069404503425       -0.92184951877327       -1.97392019450311
C           -5.44113677853494        0.34863762508110        0.11422813502908
H           -5.70103829210615        0.45124734834815        1.17159306592884
C           -5.52646496956815        1.72904497201908       -0.57070514116817
C           -6.45442006773425       -0.58647228023648       -0.50944817559615
H           -4.70914314732390        2.33962164815710       -0.17870796117145
H           -5.36192431507899        1.60257015963147       -1.64323272733791
C           -6.85585786013525        2.45918208905737       -0.35666934452396
O           -6.11433119064562       -1.24980627436389       -1.62673674194301
H           -7.67300572411216        1.79934356497476       -0.66422288811558
C           -7.06874247457281        2.84831150274852        1.10381006999074
C           -6.88808947871611        3.70904459354163       -1.23586852083503
H           -6.25492217483415        3.48197438926460        1.45006866270788
H           -8.00036116688875        3.39805763801109        1.20920859322759
H           -7.12303975503493        1.97226663041170        1.74366438665908
H           -6.77194794702765        3.44902925200201       -2.28569014426832
H           -7.83483523394769        4.22968841322977       -1.11716985216375
H           -6.08512177325700        4.38942613838232       -0.95907913062495
N           -7.60587532612456       -0.63477320510895        0.00239995459635
H           -8.89557328808770        0.17586374398095        1.00992510884486
C           -8.65927935331760       -1.43663914732252       -0.57602883988585
H           -8.63640703330881       -1.42003116300856       -1.67359191501325
C           -8.57386430309977       -2.89147146164620       -0.10192664375806
C           -9.99480061781092       -0.84866593850869       -0.09816663754709
H           -8.55426241781725       -2.92650921092200        0.98535701996150
H           -9.44089963288874       -3.43807601526001       -0.46170497227543
H           -7.66798643856551       -3.35290468557575       -0.48737884749125
O           -9.86222755005076        0.06524699152396        0.85614618152888
O          -11.05565806063317       -1.19501259417669       -0.53742989825051
