42
 energy: -62.486133513210 gnorm: 0.000479229578 xtb: 6.7.1 (edcfbbe)
N           -1.94098775779235       -1.85226290256811        1.17846225884933
H           -1.71607987926135       -1.27666208447753        1.98331405129784
H           -1.13958760502602       -2.43974830849137        0.98169175395172
H           -3.87762047266908       -1.99703649436645        1.35968164410471
C           -2.27101090162565       -1.01887617012915        0.02498633006183
H           -1.60607198582306       -0.15407979759130       -0.10858481276037
C           -2.24915268573581       -1.86895666050864       -1.24678923305726
C           -3.68650173298912       -0.50974516217831        0.23591288974818
H           -2.93933921460323       -2.70468108973471       -1.15147163040784
H           -2.53981509800114       -1.26168059909002       -2.09873516407948
H           -1.24939281085971       -2.26059445875841       -1.42218619452544
O           -4.45443543986252       -1.28576788039056        1.01237045582815
N           -4.04794116103645        0.55683516491813       -0.32641051906868
H           -5.47600349620730       -0.28065728833684       -2.19316124119071
C           -5.41458633778635        1.03860446668186       -0.20968947428678
H           -5.60294195990467        1.35141355820612        0.82288486319651
C           -5.57608446411939        2.23041769931091       -1.16306655973306
C           -6.39225768878817       -0.06474750887744       -0.53484683377792
H           -4.90678141170073        3.02083676150854       -0.82075982021982
H           -5.23479961062394        1.93189016041290       -2.15839145413787
C           -7.00835649429369        2.76599760635950       -1.26016429848613
O           -6.22763132980582       -0.67296491133821       -1.72925112924092
H           -7.66373858014766        1.95922643964866       -1.60801938588455
C           -7.52386180463246        3.25222569267958        0.09169688523548
C           -7.05556309493144        3.90174221224238       -2.28122469612285
H           -6.84571736748155        3.99146000142235        0.51302774220120
H           -8.50229261950589        3.71195760531291       -0.02560066484338
H           -7.62233504693705        2.42535520184209        0.78936855053918
H           -6.70857982781182        3.56404545656961       -3.25542483873339
H           -8.07165608865668        4.27248238085973       -2.39078295166351
H           -6.42279828022233        4.72568695605953       -1.95829007831009
N           -7.28309970733665       -0.38409812110407        0.29335658057402
H           -8.18874987926740       -0.08446830944662        1.82780500136696
C           -8.22235101097458       -1.45177698820972        0.03102383727896
H           -8.66022484863842       -1.37157895546240       -0.97197680658603
C           -7.56963452676815       -2.83079200303084        0.17842006191018
C           -9.34291930346230       -1.33417680918276        1.07404109552539
H           -7.07438581766522       -2.90067305174689        1.14461241464030
H           -8.33396103482695       -3.59961140983189        0.10796194751645
H           -6.83351499679316       -2.97675864382846       -0.60772396653991
O           -9.06616119465934       -0.47702382786565        2.04919625475297
O          -10.35726667521281       -1.97278373531610        1.02167228514699
