42
 energy: -62.486133521089 gnorm: 0.000478658535 xtb: 6.7.1 (edcfbbe)
N           -2.00256963960284       -0.22971210050829        0.73617708798311
H           -1.25618452352301       -0.72005492146043        1.21899509444912
H           -2.52152447615677        0.30496147338603        1.42525161654078
H           -3.58928366318460       -0.82009917845159       -2.21279980887631
C           -2.90546965330879       -1.18903048797713        0.11527477135433
H           -2.36363005999843       -1.63827608611133       -0.73094845471979
C           -3.38027853232609       -2.30448034856665        1.05683854368153
C           -4.10215766684541       -0.41714875085014       -0.39967972590009
H           -3.92692488824601       -1.86613095464696        1.88697763625387
H           -4.03545526042203       -2.99695047050616        0.53597139954820
H           -2.52476950651048       -2.85741373435458        1.44010780837958
O           -4.30117519799737       -0.37347200458832       -1.73801267756852
N           -4.85686387934254        0.12786187229245        0.44391857904435
H           -8.03677610950160        1.36170279712400       -1.25947689320753
C           -6.00769681867702        0.91333210356546        0.06402887816688
H           -6.30323755177142        1.43246513028651        0.98864567979008
C           -5.74558088609143        1.96210589266350       -1.03453022487508
C           -7.14929564201456       -0.02868063160183       -0.27183111124632
H           -4.67177022914947        2.15657124160362       -1.05910525569554
H           -6.00986717879122        1.54632695830543       -2.01060432577730
C           -6.46967344369166        3.29804531343057       -0.80026544347974
O           -8.18486357813447        0.44500396296150       -0.99439530596883
H           -7.48880383579616        3.11686883035338       -0.43197932130399
C           -5.73692679428211        4.12793593968038        0.25206863318333
C           -6.56383863290532        4.07886581257186       -2.11050849437176
H           -4.74424395230418        4.39402824545542       -0.10411409495965
H           -6.28337855219652        5.04437696456730        0.46293802249072
H           -5.62771210416119        3.57334392417431        1.18085109355134
H           -7.13106593220267        3.52827973795964       -2.85895104388820
H           -7.05352913706757        5.03628880928565       -1.94886074141247
H           -5.56867970915535        4.26662527717311       -2.50713893204274
N           -7.10255651709556       -1.20602670699317        0.16720360603498
H           -6.36188763639557       -2.35204338621381        1.32284319352803
C           -8.13639029869983       -2.18186418996009       -0.07784008095053
H           -9.13547984522271       -1.77850535943000        0.13261903274229
C           -8.10810208584149       -2.70374984995218       -1.51803214730322
C           -7.86957044456849       -3.35679362529944        0.87838115060757
H           -7.10488434027392       -3.04386457057682       -1.76780184600602
H           -8.79982352996193       -3.53637484578114       -1.60947239411705
H           -8.39630138277790       -1.91431698914192       -2.20723448563628
O           -6.75022739999845       -3.22540777160344        1.57809232813356
O           -8.59774079008129       -4.30661930357826        0.96533431043781
