42
 energy: -62.486133508930 gnorm: 0.000480511273 xtb: 6.7.1 (edcfbbe)
N           -2.18970565439058       -1.31296111239970        1.53737127266527
H           -1.61673686432131       -0.49201738171568        1.70071393596795
H           -1.59217698122135       -2.12944476117693        1.58562422097191
H           -3.95337353123810       -0.85272269204365        2.20958166030706
C           -2.85982812120112       -1.23237544955011        0.24158923242704
H           -2.23098580269834       -0.83622329187770       -0.56728019079757
C           -3.38336018448259       -2.61530254606985       -0.15247396844604
C           -4.06511212115149       -0.32890323834202        0.41546655739337
H           -4.01844981995315       -3.01318635883967        0.63634952961830
H           -3.96215275413079       -2.53668090361091       -1.06795858686468
H           -2.55544613659943       -3.30185159131576       -0.31679534742763
O           -4.57805065272924       -0.33467607286521        1.65844488500796
N           -4.49297636291024        0.33689304327673       -0.56090853196617
H           -7.61853147741079        0.99030794806771       -2.08460901808128
C           -5.73569324050570        1.07857093600004       -0.46230929201666
H           -5.81884276684585        1.54052874982206        0.53338306175291
C           -5.73139512706377        2.16383036247752       -1.54198115843140
C           -6.88259453655126        0.08149936733932       -0.55963545458482
H           -4.73300666372417        2.60477929116086       -1.54384309651470
H           -5.85500105672672        1.69919843714561       -2.52525447262339
C           -6.76984369213300        3.27492024865375       -1.31718105924973
O           -7.80876457462495        0.22397679207853       -1.52859442094862
H           -7.71239442392092        2.83724586728892       -0.96547964176295
C           -6.28754613040070        4.25766060096355       -0.25177623858244
C           -7.03842393252347        4.01913964661930       -2.62496440108619
H           -5.37694587471547        4.75382570503281       -0.58062903483150
H           -7.04384919583836        5.01662494670570       -0.06551002834258
H           -6.08103087742159        3.74804175858873        0.68596902622775
H           -7.44380306544681        3.35395680025443       -3.38554723805471
H           -7.75253602080332        4.82330761778244       -2.46409805851312
H           -6.11666875231741        4.45231899193642       -3.00702358866380
N           -6.90753751563434       -0.85898898360724        0.27392427869649
H           -6.19572807183345       -1.56513165919106        1.79543363910404
C           -7.89194072560671       -1.91085023035000        0.27958817236178
H           -8.90807723000170       -1.50293891245941        0.36383350589863
C           -7.82318646612861       -2.80900236299539       -0.95967451819216
C           -7.61291487932807       -2.77017695905487        1.52539067132482
H           -6.80345054289200       -3.16114800535788       -1.10407950348108
H           -8.47694962552090       -3.66409577084980       -0.81251825684138
H           -8.13707475449312       -2.25842287317383       -1.84210861477925
O           -6.56012664137566       -2.37988480177563        2.22808196560902
O           -8.28397840504290       -3.72166697649878        1.82042331667525
