42
 energy: -62.486133526309 gnorm: 0.000478330183 xtb: 6.7.1 (edcfbbe)
N           -0.90985572755843       -1.14195721375179        0.32053477275106
H           -0.54425147152715       -0.42489795965062        0.93831496008643
H           -0.12686033849660       -1.57100624279417       -0.15800821426614
H           -2.44069338396507       -1.76568919224270        1.20934883014072
C           -1.85694226332364       -0.57069299608263       -0.63713712450859
H           -1.58568432681171        0.43445678707316       -0.98515504202053
C           -2.00253028692262       -1.49451080314569       -1.84690418968464
C           -3.20646111539433       -0.48760406313286        0.05885244539035
H           -2.27408334365163       -2.49789216991235       -1.52486059211333
H           -2.77791615158232       -1.11142340379639       -2.50363351795526
H           -1.06646767157281       -1.54498190116226       -2.39898510114862
O           -3.32797577451679       -1.35484654931471        1.10326399952746
N           -4.04995517331650        0.33903824253032       -0.34610893578677
H           -5.03039167659235       -1.75225313182684        0.99030816858700
C           -5.40567877985603        0.54145963831988        0.11876752720613
H           -5.37347855713830        0.78170176692516        1.19644580135735
C           -5.96184439082920        1.74098027096006       -0.65551883021687
C           -6.29871430432796       -0.68270880631067        0.00979909298016
H           -5.14683201877663        2.45745667681466       -0.76779128289504
H           -6.23932149301243        1.39585664414895       -1.65105222858827
C           -7.15720661152083        2.42869156073906        0.01341682111382
O           -5.92220688365143       -1.82251997661957        0.60631430612428
H           -7.85340650559701        1.65945422895433        0.35949811245754
C           -6.71630396059439        3.26744901622014        1.21188350707407
C           -7.87506532177555        3.31819099009143       -1.00015673218591
H           -6.02602450830870        4.04656312428934        0.89479998734088
H           -7.57665681891531        3.74223748558157        1.67788373252075
H           -6.22180149775139        2.65828064309122        1.96461875985048
H           -8.25111834320196        2.73348828361182       -1.83581579500525
H           -8.71666312746402        3.82433419222375       -0.53315010521720
H           -7.19425240331986        4.07352000222944       -1.38726456915298
N           -7.40103260212289       -0.56986879005210       -0.59332777204544
H           -8.45665426961546        0.32974378750805       -1.74366128090489
C           -8.32814975161770       -1.67113225686266       -0.70783203982739
H           -7.82058073594867       -2.61853631854607       -0.92914996355429
C           -9.15887215406139       -1.84181358653751        0.56943260590570
C           -9.28407590671939       -1.33331478019944       -1.86166721666336
H           -9.63815107450922       -0.89984890954319        0.82957054032113
H           -9.92302158327456       -2.59579465903128        0.40318238386063
H           -8.51647104645930       -2.15209564537676        1.38981090018289
O           -9.18543827603164       -0.07525076901134       -2.27339817920775
O          -10.05709962906684       -2.12428908179389       -2.32653344623554
