42
 energy: -62.486133512624 gnorm: 0.000479630531 xtb: 6.7.1 (edcfbbe)
N           -1.53079294467867       -1.66070991730965        0.46105156542076
H           -0.97227667982446       -0.94840056746821        0.91997438467939
H           -0.89905801885693       -2.36693770366400        0.10196481616825
H           -3.22207211157966       -1.59319879773053        1.43300145756459
C           -2.32065345829908       -1.07751075361995       -0.62368649771669
H           -1.78346707292980       -0.32166028691972       -1.21202222076364
C           -2.81491123389123       -2.18099789651233       -1.55998868334660
C           -3.53347261284119       -0.42087289136943        0.00196105086281
H           -3.33109370805832       -2.95068254263280       -0.99008128842793
H           -3.50372742945920       -1.75670793963701       -2.28388066239385
H           -1.97818789534934       -2.63582931901911       -2.08590647043900
O           -3.90748274241055       -0.93683974394820        1.19355435975612
N           -4.13075430211890        0.50391134424671       -0.60182151378162
H           -6.25554217071852        0.15668023667248        2.06563200297786
C           -5.33954356850405        1.06358609953504       -0.02857756086890
H           -5.10961473317715        1.49534835280937        0.95721029717188
C           -5.84827833459272        2.14757956582693       -0.98464200859547
C           -6.38089521009523       -0.02116311603114        0.13245104241799
H           -5.05571502409782        2.88672907109268       -1.10869454277279
H           -6.01131936146641        1.65752422254414       -1.94408422307853
C           -7.14083457816163        2.83363965984966       -0.53357727920224
O           -6.83827567500351       -0.25267436693728        1.41471939145199
H           -7.89749972717556        2.06542832650255       -0.33828420802063
C           -6.93893065382086        3.66026250535810        0.73551603767212
C           -7.65468454050108        3.72993439833931       -1.65837688000348
H           -6.14901526329566        4.39379910883490        0.58694467055264
H           -7.85482216457775        4.18979051455578        0.98766838064034
H           -6.67287077329825        3.03548542908556        1.58500871441227
H           -7.83776591015903        3.14564854590362       -2.55623671769416
H           -8.58498015783019        4.21228940684799       -1.36792034096530
H           -6.92415554858883        4.50185671906934       -1.89126024789060
N           -6.75813130715804       -0.65316554374593       -0.87771129314845
H           -8.56873483490641       -0.49802952996915        0.95393487448188
C           -7.69228952975255       -1.74690486402809       -0.92065852583839
H           -7.63949036591743       -2.13133765808734       -1.94600039105055
C           -7.38050956587569       -2.88718127666583        0.05904473483135
C           -9.14402965602987       -1.29443680214639       -0.69960776013787
H           -7.48772090120048       -2.56616280228364        1.09279390971219
H           -8.05652267086336       -3.71830524447202       -0.12562200717897
H           -6.35681941909539       -3.22163040930617       -0.09452023702841
O           -9.37772045305672       -0.61279129429006        0.42120310445623
O          -10.02152894863184       -1.55738798626432       -1.47153803316274
