42
 energy: -62.486133513152 gnorm: 0.000479936662 xtb: 6.7.1 (edcfbbe)
N           -0.91262821898125       -0.38748487615331       -0.76305794236255
H           -0.21290071035701       -0.90356233713969       -1.28263049970110
H           -0.63267365394987       -0.39143862479439        0.21417751088712
H           -1.90209596692549        1.26440607409804       -0.87358827271054
C           -2.22985090569229       -1.00848954580287       -0.90292705903428
H           -2.38666159500881       -1.19792011571816       -1.97282779979241
C           -2.40961792935926       -2.31359820440254       -0.13259266319052
C           -3.26910654603496        0.03200649099129       -0.50180804234308
H           -2.21684161674595       -2.15388393589712        0.92652335238975
H           -3.43264115381652       -2.65427040462222       -0.24730200811837
H           -1.72788364056721       -3.07500423273300       -0.50638690615654
O           -2.84559014889522        1.30500334874861       -0.61650209037617
N           -4.39449351252504       -0.35821179129539       -0.10951432587315
H           -6.70665095296371       -0.32937102765094        2.19326649617571
C           -5.50157694156819        0.50529895262241        0.23539441519343
H           -5.32520906274215        0.90564852952981        1.24529228536680
C           -5.74983399011365        1.66549788037989       -0.74190121190681
C           -6.72098039345708       -0.39336521648478        0.24573464306607
H           -4.86033774330346        2.29294633444555       -0.78373585612720
H           -5.91057828555384        1.21609577345237       -1.72249436396663
C           -6.96281613598891        2.52760258319391       -0.37561069867843
O           -7.26136465077810       -0.68111581639886        1.48692444883441
H           -7.82848365602936        1.87548158008693       -0.21510327222914
C           -6.71914418454948        3.34655578324341        0.89087016573926
C           -7.28561444996592        3.46166167130804       -1.54005520749998
H           -5.84394644626714        3.98130139287762        0.76650477496722
H           -7.57732364236977        3.98215091613449        1.09737335063461
H           -6.56061207185827        2.71067651869108        1.75912606140757
H           -7.49984097344866        2.88864572524372       -2.43840493489869
H           -8.15483298635811        4.07292802767097       -1.30897764265873
H           -6.44376752602695        4.12091319992652       -1.74162087376127
N           -7.16104329340411       -0.83761547153931       -0.83457233531085
H           -8.99902688323303       -0.58371560547762        0.96978834961371
C           -8.27382307644433       -1.73029463006586       -1.02553225408570
H           -8.24486329144914       -2.00566007648996       -2.08618700465028
C           -8.22338561162193       -3.00667268204659       -0.17473322326824
C           -9.62268234993617       -1.03227313678011       -0.79291948697121
H           -8.31721210277377       -2.78505029431466        0.88602941062775
H           -9.03219032475564       -3.67053449556843       -0.47013345351767
H           -7.27296904038634       -3.50882819654550       -0.34008857003472
O           -9.78572130835088       -0.46873614371779        0.40447228122247
O          -10.48737428536869       -1.00974973263600       -1.62133446984608
