42
 energy: -62.486133512029 gnorm: 0.000479596218 xtb: 6.7.1 (edcfbbe)
N           -1.09939723835677       -1.57059482183971       -0.78539840092748
H           -0.12990837360597       -1.67151278713437       -0.51110829992127
H           -1.11276386554658       -1.28052368847161       -1.75943971789510
H           -2.69986189682095       -2.53292167428069       -0.67592789333470
C           -1.77860925722580       -0.57071121618924        0.03855923873221
H           -1.50528519572682       -0.76797584930288        1.08282530188130
C           -1.43851639222183        0.87587926482417       -0.30706198158803
C           -3.27992676492835       -0.83263842354873       -0.07705052146369
H           -1.69318908691079        1.08233582396514       -1.34442906301349
H           -2.01432200284427        1.54186905047117        0.32568592498964
H           -0.37736591830082        1.06349228707228       -0.15785196878022
O           -3.56202399516008       -2.10711009286583       -0.47564587594293
N           -4.07046882767806        0.08512293531561        0.20569342000304
H           -5.14598050619564       -2.23716188428734        0.09644336150275
C           -5.48968126382673        0.29389009810390        0.18874016319818
H           -5.69337245280703        0.85427834864925        1.10943747144660
C           -5.66849793255955        1.25812237890288       -1.01465909146856
C           -6.49191384152903       -0.85453262703346        0.15703705199473
H           -4.86192780694577        1.98979454093883       -0.92565304379833
H           -5.49198706178127        0.68132392417329       -1.92615647636535
C           -6.99451945869195        2.00757455795453       -1.15568797829524
O           -6.09936713086867       -2.12852389101451        0.26319633796175
H           -7.77458656818256        1.28963391854304       -1.41397911969381
C           -7.38642988283515        2.73686041055193        0.12548776534001
C           -6.87189538288681        3.00670995513847       -2.30658928172681
H           -6.60096512353771        3.42858082953156        0.42370975087178
H           -8.30018710835452        3.30421992436542       -0.03344248682100
H           -7.55808452051624        2.03482986777576        0.93679508075574
H           -6.58472898455780        2.50359267557488       -3.22698731582878
H           -7.82324292868361        3.50513682084559       -2.47358017499176
H           -6.12292770172421        3.76308476303147       -2.07996623278605
N           -7.71675426221198       -0.54705932967381        0.06563257671452
H           -9.14317296896160        0.65865026674326        0.00343037551371
C           -8.73305523269169       -1.57784079226694        0.05631160899483
H           -8.48299153137989       -2.38965193082146       -0.63826456785731
C           -8.95901113754639       -2.17724679801763        1.45117872878922
C          -10.05066527209433       -0.92834185244494       -0.37909744680613
H           -9.18211282714371       -1.38588263495238        2.16468097816907
H           -9.79555101114417       -2.86951547126913        1.41392195027072
H           -8.06662466606275       -2.70633158136502        1.77469053298483
O          -10.05153089095840        0.39572838127941       -0.26552485144271
O          -11.00280567299492       -1.55664024002219       -0.75111525780982
