42
 energy: -62.486132314597 gnorm: 0.000618283801 xtb: 6.7.1 (edcfbbe)
N           -2.29895367360302       -1.02407069245247        1.94515859807175
H           -2.31169220006729       -0.38979477166949        2.73685975867196
H           -1.35541580872899       -1.37674944390619        1.83945636653469
H           -4.06612951246518       -1.72423472888600        1.95563902683628
C           -2.74611351972691       -0.34829053253716        0.72946226587641
H           -2.35923284870050        0.67408462463081        0.61852323314267
C           -2.34518125422549       -1.17252201152514       -0.49442311471569
C           -4.27124538324150       -0.28649560545317        0.77508072984357
H           -2.73290722126111       -2.18498663275678       -0.40581153573040
H           -2.75295797900845       -0.71536199396942       -1.39078771320202
H           -1.26169673314115       -1.21831624349848       -0.58371996805833
O           -4.81744574359923       -1.24748913412752        1.53658517835687
N           -4.82391716696992        0.64869319956298        0.15519080344105
H           -8.47117899152178        1.24133104769071       -0.75539624284431
C           -6.19784215823161        0.94856916546040       -0.12302487735256
H           -6.52605606320845        1.64913341528371        0.66416111351326
C           -6.20035931545578        1.69791594704906       -1.48483040048295
C           -7.26013849879581       -0.13527492024075       -0.13700585473975
H           -5.19222749508059        1.61309405748376       -1.89187290754222
H           -6.87260680149010        1.20198197816234       -2.18937956460577
C           -6.56237229674796        3.18478706276776       -1.38160313420159
O           -8.48229038059836        0.29755105245977       -0.55542778006194
H           -7.47486739291590        3.29925193717399       -0.77986466464344
C           -5.43762344433358        3.96103957732101       -0.70216237816328
C           -6.83513780800430        3.75657990367375       -2.77157613647210
H           -4.54792848062289        3.94840833119874       -1.32684394348418
H           -5.73024070083173        4.99566295006170       -0.53791140306218
H           -5.18227196731386        3.51429178953637        0.25474417932798
H           -7.67245514220096        3.24897148992100       -3.24648403648902
H           -7.07081819404594        4.81613938549308       -2.70709087480322
H           -5.95933763095098        3.63841395859573       -3.40526230518480
N           -7.08196631196387       -1.31197081052830        0.25935101722993
H           -6.15889302879636       -2.53919568419114        1.37790531508264
C           -8.16047982235452       -2.27374490655372        0.22621175114942
H           -9.10509860421615       -1.83712752323870        0.57771517011945
C           -8.37307297305193       -2.82507043003944       -1.18825588747976
C           -7.79766853315951       -3.44404502323194        1.14962259493571
H           -7.43122838077711       -3.20015231172192       -1.58352959271596
H           -9.09300977567098       -3.63756306081519       -1.14913596834406
H           -8.74660272098773       -2.04146437898675       -1.84252622260206
O           -6.57963142101980       -3.38717626683081        1.66174704806016
O           -8.55989782174479       -4.34682994121639        1.36944688724647
