42
 energy: -62.486133514671 gnorm: 0.000479595538 xtb: 6.7.1 (edcfbbe)
N           -2.70390906712843       -2.42543476925474        1.11426997511039
H           -2.95721079878582       -2.32159867815180        2.09168491311617
H           -1.78697588271073       -2.85412750588384        1.07145608761428
H           -4.43227111860050       -2.61822091395509        0.31841420602446
C           -2.70858224302952       -1.13222503851961        0.43556903839266
H           -2.25198787882926       -0.31953603176768        1.01661942166585
C           -1.98717080496422       -1.25388935406985       -0.90697467802927
C           -4.16754645636321       -0.77296130468688        0.17579574037270
H           -2.43239593064146       -2.05056771452811       -1.49907683446017
H           -2.06962583920160       -0.31789033469530       -1.45085067182106
H           -0.93420776798463       -1.48027962137689       -0.75248893320885
O           -4.97472434733450       -1.83954645108792        0.06811265554411
N           -4.45587578906990        0.43993148185664        0.04357805874268
H           -7.11668428840623        0.53327106053376       -2.19594119967374
C           -5.75000630976597        1.03989751486069       -0.17816132659352
H           -5.94614619564406        1.60185676717054        0.74536943612274
C           -5.58745163285619        2.04522964617688       -1.32805266113069
C           -6.92030492387012        0.08052629548929       -0.33953285800807
H           -4.64933729223650        2.57287713235081       -1.14832567900913
H           -5.45631398658941        1.50432782879176       -2.27210679021807
C           -6.72924881914514        3.06662214930166       -1.44172483501808
O           -7.53584492511547       -0.03010168094170       -1.53312520668846
H           -7.69313297352918        2.56066308109878       -1.31203570000746
C           -6.61225312804874        4.13870944596927       -0.36066878618364
C           -6.70695986441063        3.71964092526378       -2.82362532215590
H           -5.67845602197038        4.68581789697673       -0.47009009390636
H           -7.43526059777293        4.84516591227952       -0.43980303537931
H           -6.63898444910382        3.69893087030494        0.63282228671866
H           -6.84752390640813        2.98288716596212       -3.61264448872032
H           -7.49990547275773        4.45881841523776       -2.90695484705668
H           -5.75484033435976        4.21950359256869       -2.98816208515269
N           -7.24816520483715       -0.58629015844161        0.67605034833847
H           -6.64975537775895       -1.19963499132751        2.21231263553372
C           -8.29103866391073       -1.58067816667658        0.72636224154128
H           -9.27461163008831       -1.09445191245307        0.68975766589639
C           -8.22459110769800       -2.65370353965362       -0.36513266035736
C           -8.15623382214139       -2.27259456404343        2.09610222655710
H           -7.21063939826658       -3.04138966600179       -0.43029021000847
H           -8.90368594542927       -3.46104107328927       -0.10437368575674
H           -8.50673068100535       -2.23859001929137       -1.32811498933448
O           -7.08312657876110       -1.88990192013068        2.77593540977354
O           -8.93647382892558       -3.09204743891496        2.49698030833939
