42
 energy: -62.486133518286 gnorm: 0.000479111969 xtb: 6.7.1 (edcfbbe)
N           -0.98632743208182       -0.29976281636484       -1.45918593257805
H           -0.24094578354892       -0.91101493492383       -1.76967366084608
H           -0.58087163571704        0.38023839882207       -0.82108679577193
H           -2.41697098463100        0.71289984025560       -2.19046979697595
C           -2.03950340089939       -1.05312927732113       -0.78143222258123
H           -2.25873222437305       -1.93055547661500       -1.40487579215548
C           -1.68361068254968       -1.51275993982020        0.63019371780993
C           -3.29734479799942       -0.18105181408654       -0.79882707046984
H           -1.41990034827940       -0.65432136814928        1.24539429383332
H           -2.53607226892649       -2.00596155110909        1.08419336311942
H           -0.84186776870462       -2.20177749079392        0.60367097177537
O           -3.29427554709469        0.75511957683099       -1.75433314428022
N           -4.19256770651957       -0.42073463735574        0.05185020605621
H           -5.08019189714165       -2.01776518712109       -0.51633270491389
C           -5.49842320897850        0.19541217358320        0.17083342356084
H           -5.66385499914850        0.27701503147867        1.25321674857932
C           -5.62199381661368        1.59164966680611       -0.46103064825504
C           -6.51654656160504       -0.80823666753515       -0.35170692711116
H           -4.79014611024413        2.18289349236634       -0.06862452980282
H           -5.48346264630185        1.50165528520538       -1.53884790940531
C           -6.92646239625688        2.35336584503562       -0.20768246388999
O           -6.03477891069512       -2.01093972879847       -0.71339541547648
H           -7.72121064830164        1.87207432050550       -0.78094245880544
C           -7.32342456839198        2.37662918072117        1.26550410572540
C           -6.76831306541642        3.78221383455896       -0.72798995223206
H           -6.51482792537704        2.77899346051354        1.87314261916145
H           -8.19884285056291        3.00692030938701        1.40378491499981
H           -7.56594353251404        1.37837479559293        1.62027198870384
H           -6.46691796337622        3.77964240976601       -1.77279681331837
H           -7.70870122156116        4.32127898786528       -0.64464300710669
H           -6.01391967214509        4.31756799094946       -0.15461169863019
N           -7.74071477685352       -0.51288801125341       -0.40015801428086
H           -9.17766632759738        0.61721091574436       -0.07961314208774
C           -8.72167360992837       -1.46724331140990       -0.87352385431814
H           -8.42494094557636       -1.90984108065199       -1.83199859901840
C           -8.96705738259054       -2.59590743900603        0.13638263688909
C          -10.04664776589692       -0.71621989798245       -1.05695584233060
H           -9.22915627088813       -2.17692505576739        1.10616600836060
H           -9.78517425822014       -3.21843332115502       -0.21490782067609
H           -8.07134274366428       -3.20212789721056        0.24131444022555
O          -10.07490386766447        0.46637573484142       -0.45393546874653
O          -10.97996072572890       -1.17196016715255       -1.65740269663584
