42
 energy: -62.486133511405 gnorm: 0.000480676092 xtb: 6.7.1 (edcfbbe)
N           -2.10668486834267       -1.91576203147868        1.38643641360035
H           -2.19857310349657       -1.71224140025997        2.37594010191524
H           -1.15960232743215       -2.23192632841141        1.21670136216097
H           -3.87240512590988       -2.43578959804073        0.92373758228005
C           -2.41749254775881       -0.73727774747964        0.58162479350187
H           -1.99810915865103        0.19712444987039        0.97790918149875
C           -1.91583512955946       -0.94595462576003       -0.84680748293988
C           -3.94071001294641       -0.60559480636714        0.54255275856368
H           -2.33144118929738       -1.86308770663355       -1.25751860471135
H           -2.22380125411675       -0.10954690034888       -1.46606836164253
H           -0.82995520379561       -1.01577366404536       -0.86229566134976
O           -4.57008522746771       -1.77966569086940        0.70026981205780
N           -4.40258698342473        0.53628426755362        0.33355027155412
H           -7.89215829686074        1.98710988330895        0.55883184543432
C           -5.71887799845943        1.07939395374603        0.17932290099099
H           -5.74002621680459        1.93709982321350        0.86778708431736
C           -5.72064564948018        1.60223936321023       -1.28678872125934
C           -6.98526677160294        0.28084009111687        0.41217340292933
H           -4.73129238136090        2.03425936133067       -1.45161980722875
H           -5.80929107813672        0.72537124645970       -1.93233634072678
C           -6.77698429291906        2.63444099092626       -1.69519064997173
O           -8.10419298844570        1.04646559379491        0.55895868068194
H           -7.78028321738167        2.22274493651862       -1.54373603023356
C           -6.63537130473649        3.94203765882167       -0.91631084954388
C           -6.62670017933768        2.91926191073156       -3.19047477962534
H           -5.64991984130548        4.37042195202244       -1.08587688056660
H           -7.38178567348551        4.66015404511791       -1.24881470579030
H           -6.75885226734182        3.80624246796628        0.15681725325504
H           -6.75061558302681        2.00786808539474       -3.77035267526514
H           -7.37573111838908        3.63675633041460       -3.51733690229483
H           -5.64206823244105        3.33019651080580       -3.40248106331888
N           -7.03459984394657       -0.96787894513623        0.52483677083635
H           -6.20844506177916       -2.62982737995911        0.96872991673388
C           -8.29537324835054       -1.63747440080283        0.74598048830752
H           -8.94085644445998       -1.08040781951958        1.43818631816905
C           -9.04888600471137       -1.83830224853646       -0.57406783302859
C           -8.01377622289600       -3.01873948103503        1.34925706600459
H           -8.40534855246518       -2.34020751961791       -1.29384772040946
H           -9.92951111344173       -2.44883312739362       -0.39457623465080
H           -9.35266156744259       -0.87604958100685       -0.97896569053813
O           -6.74088753027585       -3.37755706269861        1.33325097135162
O           -8.88850046504884       -3.72044045220570        1.78154716319821
