42
 energy: -62.486133529767 gnorm: 0.000477139837 xtb: 6.7.1 (edcfbbe)
N           -2.24970929986508       -1.68215156289348        1.47549129586221
H           -1.85456696931358       -0.94491526950090        2.05007501075473
H           -1.54243002466122       -2.39718499424164        1.35171421293965
H           -4.12876068163979       -1.57697989916662        1.91874895912847
C           -2.69003114300642       -1.15438220547058        0.18668066156799
H           -1.99689030129406       -0.43001282579777       -0.26252766784020
C           -2.91399327368633       -2.30761868898338       -0.79259328093120
C           -4.02703015906973       -0.46497946358151        0.41566918373248
H           -3.60373664300065       -3.03222773033219       -0.36510116201853
H           -3.33163602219173       -1.92454162573525       -1.71864960056755
H           -1.97300665073287       -2.80818573578320       -1.01101181676541
O           -4.71360099116742       -0.93054443869596        1.46874405739723
N           -4.35978417576907        0.46523050955352       -0.36018223625287
H           -6.82894727552867        0.58360108223774       -2.42736867397168
C           -5.65439133312695        1.12385127228222       -0.33265422227002
H           -5.82934134358739        1.52248428960995        0.67645483804537
C           -5.60866790108753        2.26845445727597       -1.34698337089640
C           -6.74614371259486        0.09819166773315       -0.57124996567101
H           -4.76069507797460        2.89936821452971       -1.07464635260527
H           -5.37555883005213        1.86319628942109       -2.33725618288934
C           -6.87961679129534        3.12704507984318       -1.40215960685311
O           -7.22982045618352       -0.05516496190834       -1.82418553605062
H           -7.75881371493500        2.48110374241016       -1.50944860997856
C           -7.05239431024690        3.94609452912810       -0.12486443401166
C           -6.81444866367509        4.05760378467680       -2.61307360587925
H           -6.18206812251759        4.57693002996813        0.04245974518122
H           -7.92853108187063        4.58526777580184       -0.20520505019419
H           -7.18523847347702        3.30123491603483        0.73966894528738
H           -6.73477089182612        3.49239717433321       -3.53974916729707
H           -7.70806461897319        4.67448462685094       -2.66780787338439
H           -5.94985322573836        4.71346279363497       -2.53749127106694
N           -7.09298068713598       -0.63416855348239        0.38854075176109
H           -6.74255729408663       -1.23656387084666        2.09702367669907
C           -8.03708153771322       -1.71678190763383        0.27228369613476
H           -8.99427625955816       -1.37693855140416       -0.14160107898278
C           -7.50716861106023       -2.87260088826957       -0.58613305778270
C           -8.26435698576570       -2.25574467698669        1.69385739474039
H           -6.53858639798110       -3.19683938425494       -0.20987343826074
H           -8.20428299834397       -3.70431486280248       -0.53753653911580
H           -7.39734105244358       -2.55182400686044       -1.61855409006314
O           -7.34906071149538       -1.85917502312170        2.56606721872805
O           -9.16595654427142       -2.99818694679734        1.97336349261346
