42
 energy: -62.486133500807 gnorm: 0.000481175570 xtb: 6.7.1 (edcfbbe)
N           -2.02529025146216       -2.24285532257591        0.72749424842047
H           -2.18408534745691       -2.20454790612261        1.72922804313131
H           -1.08366952266563       -2.58457703264966        0.57432691497485
H           -3.82507929411619       -2.54569744160450        0.05018534862528
C           -2.20198603535791       -0.92167288361453        0.12864308663746
H           -1.74985554237893       -0.10274683830471        0.70433973464795
C           -1.62342727856717       -0.91906323246115       -1.28729584369976
C           -3.69965123891994       -0.67260180079745        0.03788376100923
H           -2.07429628137670       -1.71392257530283       -1.87842526599240
H           -1.82214278736875        0.03729047765533       -1.76208200228856
H           -0.54763374402644       -1.07756758077620       -1.25630789135607
O           -4.43518774485012       -1.79325787440630       -0.09005151472367
N           -4.11915268142071        0.50834098228413        0.08152095432531
H           -5.71861118914840       -0.49203016797551       -2.01816666536946
C           -5.49500768539316        0.92816474709430       -0.04257073402167
H           -5.75146933847705        1.37823774032994        0.92292110405213
C           -5.55074888090850        2.01574633263865       -1.13060577215284
C           -6.51173913062871       -0.15860586457015       -0.31042482987480
H           -4.87710760790696        2.81630939178405       -0.82226130763866
H           -5.15537987734810        1.60778853398326       -2.06653605196184
C           -6.95271140991239        2.58224524739604       -1.38118329790787
O           -6.48953775984843       -0.77170573921888       -1.51029761240087
H           -7.61324204992043        1.76912160416947       -1.70286541256222
C           -7.54415668910172        3.20949377849178       -0.12162160366235
C           -6.88272944029500        3.61766385781235       -2.50302010417106
H           -6.86209255488094        3.94955449573303        0.29130904439169
H           -8.48378885162102        3.70307729582265       -0.35784570120343
H           -7.74279550863815        2.45334274932698        0.63278419431855
H           -6.47378990666845        3.18077992427131       -3.41171956943128
H           -7.87441168761108        4.00254453143898       -2.72693217049118
H           -6.24958638983524        4.45163986507096       -2.20785003565386
N           -7.38971651055126       -0.39098907112484        0.56368468202184
H           -8.28365671823555        0.05698790910621        2.07902550948708
C           -8.41035926032275       -1.39444001424009        0.35202588032479
H           -8.82510931888065       -1.34864990614063       -0.66270166142417
C           -7.86218190514155       -2.80415455239244        0.60106843606820
C           -9.53164377449784       -1.12544853498220        1.36310256239300
H           -7.43989001293997       -2.86475674944317        1.60213949016810
H           -8.66708571822006       -3.52736377839842        0.50713419196462
H           -7.08285893508271       -3.02536533233235       -0.12348773287283
O           -9.19394859249249       -0.24776288414754        2.30227229090170
O          -10.59937682153009       -1.67057206747207        1.32209807460394
