42
 energy: -62.486133503755 gnorm: 0.000481530855 xtb: 6.7.1 (edcfbbe)
N           -1.40224164699219       -0.52533500983823        1.07873709261964
H           -0.55700018559574       -1.05645319739918        0.90448086384167
H           -1.68512815004295       -0.71373821872413        2.03687214934096
H           -2.16133869649963        1.27235937590197        0.76082381850040
C           -2.46932219831419       -0.94011043772845        0.16567796486603
H           -2.05768633759087       -0.87791789275475       -0.85143454856847
C           -3.01323046757246       -2.34560102016202        0.40263584685862
C           -3.55733885198428        0.11438878652053        0.25844617421965
H           -3.46982666460680       -2.41338302257728        1.38648688679670
H           -3.77124954628150       -2.57392528841480       -0.33762771911084
H           -2.21057537005532       -3.07696565398673        0.33032830432374
O           -3.10805979649236        1.35786651450059        0.53738658329384
N           -4.76024172584326       -0.20005808153109        0.08758379446468
H           -7.98843590683021        1.71781082552986        0.73107713810866
C           -5.80245916332080        0.79817469288111        0.10924264843192
H           -5.67684818718019        1.48555862967518        0.96026917683833
C           -5.73748378293264        1.59631667093328       -1.21377663705626
C           -7.11822100556729        0.06893480528410        0.23794644724321
H           -4.73138550315924        2.01537364806167       -1.28152095435980
H           -5.85516965803529        0.87288331595168       -2.02371262634382
C           -6.75055440705824        2.73100262385477       -1.39685008281670
O           -8.21377146600052        0.79219868060205        0.57761578798726
H           -7.76826548297299        2.33143012773810       -1.32897439828637
C           -6.56292077471613        3.83925741851636       -0.36068939818590
C           -6.58370973982951        3.31645429181519       -2.79969580329544
H           -5.55869394550324        4.25096900380009       -0.43572611630047
H           -7.27579238624405        4.64249896786873       -0.53479805164729
H           -6.70083840187875        3.48508978629554        0.65959692752124
H           -6.74334642606608        2.55252307605833       -3.55677354394755
H           -7.30052409574844        4.11747722710867       -2.96501555985378
H           -5.58183177549282        3.72113123649440       -2.92554426032060
N           -7.14113351744884       -1.17496001342177        0.08337165817910
H           -6.14855300379245       -2.63779481145357        0.13280694928729
C           -8.31501539297059       -1.99278833060551        0.22833115278894
H           -8.92857076013564       -1.69403073395236        1.08871917520809
C           -9.18451463659970       -1.96835121688107       -1.03251711089066
C           -7.80745894415728       -3.42966020492130        0.45366507373818
H           -8.57794281284882       -2.20777506625264       -1.90340951842952
H           -9.97678731723703       -2.70531106324534       -0.93606969659395
H           -9.62109098446752       -0.98130290967878       -1.16390675006623
O           -6.49448500021749       -3.54905857736598        0.32259569902746
O           -8.53714713966847       -4.34720463468231        0.71228034315812
