42
 energy: -62.486133512979 gnorm: 0.000479507659 xtb: 6.7.1 (edcfbbe)
N           -1.10095620641449       -1.06487203802061        0.43002675474626
H           -0.19122512192594       -1.25990076441148        0.02983499887971
H           -1.37590267350342       -1.88017488073864        0.97144017985636
H           -2.02234988860322        0.32502008358131        1.38684341898919
C           -2.08990983419760       -0.81086766290501       -0.61801141232869
H           -1.63372513538097       -0.11884282434012       -1.33718331432027
C           -2.57637784076783       -2.05504786107339       -1.35684358279567
C           -3.25078958464405       -0.06439048181649        0.02286655987943
H           -2.98141288408831       -2.77599563116685       -0.64909557583427
H           -3.36565307611112       -1.77283287395151       -2.04509032113491
H           -1.75937803357810       -2.51833943711653       -1.90618074206112
O           -2.95397769284868        0.54913692053693        1.19012880591286
N           -4.36821598507956       -0.05096757190051       -0.54803227650710
H           -6.13872055825266       -0.37082696543053        2.04140418823912
C           -5.48149218052403        0.70381386297725       -0.01689736064796
H           -5.23808182206553        1.16203821740694        0.95494126294782
C           -5.85484866432139        1.78612148855817       -1.03705597888155
C           -6.61232590176104       -0.28351864740928        0.15289206419252
H           -4.98293524666032        2.42432316836164       -1.19326752584151
H           -6.07841129178947        1.26726912054776       -1.96826969294957
C           -7.05685671015821        2.64194972098997       -0.62667813090027
O           -6.80318383192148       -0.74107869674854        1.44663201107500
H           -7.88410621381365        1.97553052777745       -0.36124300456907
C           -6.74096007632044        3.54012976411555        0.56790975584186
C           -7.49603865934080        3.49529288878283       -1.81479810135516
H           -5.89841484783339        4.19028900764568        0.34058226780823
H           -7.59992192975083        4.16344472446174        0.80550085381976
H           -6.49656391289211        2.95900368379542        1.45374809736611
H           -7.76333990313985        2.86328349671376       -2.65743413124766
H           -8.36108265691930        4.09902079849321       -1.55108821042770
H           -6.69218452151631        4.16124454532505       -2.12207269168027
N           -7.26374751883555       -0.66939361629796       -0.83829808416923
H           -8.61633247428790       -0.77436425702358        1.35755491609312
C           -8.31432244180882       -1.65140917133353       -0.87223623707565
H           -8.52428998149764       -1.81324599905119       -1.93583521623534
C           -7.94988236988926       -2.99385086533863       -0.22299739644879
C           -9.61955673363931       -1.14119353984685       -0.24196313506571
H           -7.79771556631468       -2.89025353211982        0.84922304880751
H           -8.74881186317325       -3.70985692456593       -0.39923935923961
H           -7.03152553422752       -3.36886294691604       -0.66911378064802
O           -9.52667957172885       -0.70429383901119        1.01419050880953
O          -10.66398431528694       -1.15455667163849       -0.82785927590044
