42
 energy: -62.486133488391 gnorm: 0.000482777549 xtb: 6.7.1 (edcfbbe)
N           -1.49605975057131       -1.03787133687073       -0.23421537356149
H           -0.93805741841784       -1.88106692227709       -0.28870248550722
H           -1.03453549023529       -0.40696924520909        0.41552322066499
H           -2.35788369594477        0.18459747875861       -1.38779009863421
C           -2.84814945492098       -1.33567647882010        0.24082275124916
H           -3.19963280644454       -2.22018082037279       -0.30448549757292
C           -2.94919855993457       -1.60213692804950        1.73984766179379
C           -3.75170997101700       -0.17989678495740       -0.19107576653169
H           -2.57899153415687       -0.74472775732554        2.29883691163490
H           -3.98675526210518       -1.76614584712368        2.00760147195701
H           -2.36562954852412       -2.47996042119547        2.00908360458319
O           -3.24750427377960        0.55371161893749       -1.20223174276413
N           -4.84955141190401       -0.05156568997624        0.39529924713506
H           -8.27270187730310        1.62815998635064        0.25237886619130
C           -5.91375981341947        0.88795857078431        0.16483156365205
H           -5.97368007008487        1.50390576555387        1.07435136277168
C           -5.74356011177867        1.79599530479084       -1.07300647711184
C           -7.17759956179098        0.04988824510107        0.10167807845390
H           -4.76317907399132        2.26668062250381       -0.98855074430193
H           -5.71946905026320        1.15018721120943       -1.95339102221974
C           -6.77875315836918        2.90529809942971       -1.29916157287183
O           -8.37600434094056        0.67538236564061        0.14235876726900
H           -7.76308401582908        2.46591628613073       -1.49671712777658
C           -6.87094077337261        3.86725100714873       -0.11371091379206
C           -6.38211967819985        3.68885390511155       -2.55189969745487
H           -5.89796762413343        4.31572726814248        0.07652769707192
H           -7.57559447879243        4.66675757952146       -0.33361664002108
H           -7.19803398108770        3.37889832414382        0.80337163169961
H           -6.32103897595359        3.02902129319198       -3.41379549805260
H           -7.11472072966861        4.46425137251967       -2.76462640809362
H           -5.41209032377449        4.16101364620319       -2.41327566050233
N           -7.06458345912284       -1.20062885435495        0.10093328891494
H           -5.98613374872165       -2.54001213555060        0.50041394957700
C           -8.17394982647087       -2.11670865619967        0.11646296968299
H           -8.94831391144813       -1.81420439632358        0.83406013178979
C           -8.81524241462357       -2.27110420444903       -1.26583746794095
C           -7.59785432220345       -3.47587453528702        0.55570727541936
H           -8.05143636646898       -2.51031523520970       -2.00288674881935
H           -9.54389813418150       -3.07619274252807       -1.23384923288886
H           -9.30863641449457       -1.34584073168535       -1.55278246463993
O           -6.27900904416558       -3.46738510197773        0.69681097984908
O           -8.27917683683139       -4.44701674966605        0.73764200681864
