42
 energy: -62.486133514446 gnorm: 0.000479253288 xtb: 6.7.1 (edcfbbe)
N           -1.03997106863468       -0.47000792184651       -1.36989435716713
H           -0.26616161089636       -1.09241021889061       -1.56652226835269
H           -0.66322584605136        0.34667595515934       -0.89637102829494
H           -2.51308213661708        0.30692802598780       -2.25968830528340
C           -2.03772837311120       -1.11926105800489       -0.52033030854108
H           -2.19104183987691       -2.13425977730241       -0.90882561900275
C           -1.66274395022888       -1.19920398797866        0.95725871838486
C           -3.35215372093932       -0.36728881110443       -0.71640927021613
H           -1.47229744665263       -0.20203531465706        1.34929445592134
H           -2.48684043660400       -1.63304305053370        1.51305796356826
H           -0.77224784983306       -1.80961156117225        1.09244490105119
O           -3.40796552575451        0.34966001446156       -1.86074887641110
N           -4.26397607154706       -0.51630237563938        0.13253683629417
H           -5.25249873078386       -1.26940831024951       -1.80626559931085
C           -5.55257827070760        0.13262265112591        0.14898722588573
H           -5.82963918334294        0.17613914740453        1.20667382660703
C           -5.57887159206961        1.55718141900534       -0.44284756887435
C           -6.58471919954989       -0.72366723324442       -0.55314369648379
H           -4.72701411522693        2.09958816144759       -0.02479216873939
H           -5.43514566505746        1.49684941739083       -1.52351553270609
C           -6.86451318513151        2.33853755247534       -0.15723376854482
O           -6.18597920274265       -1.43990594712247       -1.61987351331211
H           -7.71694940155609        1.74542719204527       -0.50101617926321
C           -7.04264659248325        2.63157147102592        1.33020938791223
C           -6.84092106698760        3.64875515587124       -0.94389483338222
H           -6.18918150295034        3.18802824179757        1.71295241696453
H           -7.93826271891697        3.22759557518632        1.48653825276374
H           -7.14591691563059        1.71569036150502        1.90528172130547
H           -6.74877018359657        3.45887450641506       -2.01078227328958
H           -7.75842315846965        4.20680191751995       -0.77507311312997
H           -6.00112117371408        4.26620255529964       -0.63088928175011
N           -7.78421017302849       -0.65822096730053       -0.17262125252755
H           -9.08160420319438        0.16690307693376        0.80101745330127
C           -8.84153092040126       -1.37035658136299       -0.85425827596344
H           -8.75198930157261       -1.28727278478194       -1.94521458180018
C           -8.86652377685066       -2.85465439213836       -0.47419179576318
C          -10.16996261786240       -0.73450254666601       -0.41716463633146
H           -8.91135640305985       -2.96004731509063        0.60787494223038
H           -9.74224660714168       -3.32254573339359       -0.91515696944421
H           -7.96890210900515       -3.34548982223038       -0.84156930471128
O          -10.04423172272957        0.11587229751409        0.59459662338577
O          -11.22104569814144       -0.99843474430921       -0.93149524044332
