42
 energy: -62.486133508114 gnorm: 0.000480451914 xtb: 6.7.1 (edcfbbe)
N           -1.13987246461286       -1.07573599841444        0.51996622088840
H           -0.20547237128167       -1.21642953189381        0.15636030264715
H           -1.40965421059340       -1.92714328939504        1.00526805196920
H           -2.13228820465314        0.22325825762713        1.50557108200336
C           -2.08745012188762       -0.79766263209807       -0.55997480732100
H           -1.61024616956353       -0.08239818034541       -1.24118573776251
C           -2.53317305885402       -2.02492091345160       -1.35136377763506
C           -3.28087252724622       -0.07853801641614        0.05281198772657
H           -2.95971044388531       -2.76862940113939       -0.68042287833119
H           -3.29569864876669       -1.73013974779623       -2.06426238934438
H           -1.69063585906136       -2.46694226107942       -1.87921276287314
O           -3.05765335291877        0.44779537954580        1.27829154476946
N           -4.35911535385640       -0.00998176352936       -0.58642711498570
H           -5.82718365720355       -0.59787741820519        1.88040706867722
C           -5.49206281877968        0.73425296007721       -0.07375866159110
H           -5.26137789960202        1.21040024385590        0.89209446563377
C           -5.87226932839082        1.79457773167516       -1.11087393099527
C           -6.59105274560140       -0.28214200580926        0.11932108909157
H           -5.00597819521558        2.44237108442977       -1.26172482108148
H           -6.07701475232821        1.26694039425312       -2.04126004863220
C           -7.08934877158077        2.64197744576082       -0.72919140423278
O           -6.58156139973058       -0.90115990395589        1.35923802388270
H           -7.93624500629729        1.97120542212889       -0.55683760759253
C           -6.84478327150031        3.46748461769475        0.53275383722572
C           -7.43895155158582        3.56580667201578       -1.89429399387789
H           -5.94653886263250        4.07258672086043        0.42439780274322
H           -7.68585129761509        4.13309286295436        0.71250832707977
H           -6.73174161531561        2.83406181982180        1.40913258613954
H           -7.63601857866441        2.98649995896200       -2.79230581979914
H           -8.32527905137969        4.15161099784833       -1.66307515468715
H           -6.61763410187906        4.25036598699636       -2.09703821619178
N           -7.38160959842358       -0.55552446023762       -0.80576110711605
H           -8.39212818575342       -0.95457754466604        1.53842567647675
C           -8.42257034860677       -1.54989190947719       -0.80141950986462
H           -8.78778273056802       -1.59084314097630       -1.83411467802673
C           -7.95983690430225       -2.94995337429551       -0.37611729136379
C           -9.62015232235428       -1.13945372151219        0.06980313900988
H           -7.64659328498109       -2.96751339593368        0.66547994009571
H           -8.77328524952940       -3.65815407108465       -0.51267558555410
H           -7.11832009138240       -3.25091745972620       -0.99612123883443
O           -9.34289614227540       -0.85867526707067        1.34305510187585
O          -10.73828071119646       -1.09110894549572       -0.35653261747346
