42
 energy: -62.486133493247 gnorm: 0.000483695673 xtb: 6.7.1 (edcfbbe)
N           -0.75513404024375       -0.16654889632456        0.09802719985364
H            0.14089679145821       -0.30244919556795       -0.35348932566831
H           -0.76665094125304       -0.74185168895562        0.93575033891619
H           -1.92770458028673        1.29645888659513        0.60387088297626
C           -1.85356935446501       -0.55093902038748       -0.78650970552242
H           -1.65798024054778       -0.09314394854899       -1.76525109881035
C           -2.03615342885478       -2.05705633508326       -0.96703865205617
C           -3.11063509586826        0.11392883234731       -0.24529268986857
H           -2.25270956992752       -2.52893147432784       -0.01036218668074
H           -2.86169837639294       -2.24715040593592       -1.64502344044514
H           -1.13151269197206       -2.49899345358291       -1.37987029543218
O           -2.89631223542693        1.21309838444027        0.49129173488081
N           -4.24054314581449       -0.36784974031369       -0.51851252465772
H           -5.08186830545990       -1.99774634451795       -0.31387305756332
C           -5.47259827435960        0.24954682190177       -0.05963765839449
H           -5.39370462034311        0.52253455735961        1.00206106763198
C           -5.71209143037718        1.52396260485464       -0.88755008659987
C           -6.53489408409658       -0.82835058867367       -0.19618378499077
H           -4.85227724804152        2.17192992157152       -0.69907844859286
H           -5.69310982776162        1.24017693516610       -1.94240173242812
C           -6.98970617186469        2.32150286331220       -0.61195971532365
O           -6.05097468751431       -2.08114842153370       -0.20205316227083
H           -7.83227887320025        1.78378201936387       -1.04995871983958
C           -7.24574694229628        2.51455172551842        0.87927616106054
C           -6.88184886635608        3.67849262636846       -1.30775399906454
H           -6.38266144628138        2.97281943906821        1.35837394892910
H           -8.10448999650247        3.16486168949570        1.02893470550845
H           -7.45208192554379        1.56238556634553        1.36058979725805
H           -6.68189036701210        3.55125226056147       -2.36914999420374
H           -7.81060286128420        4.23305133048371       -1.19954655938898
H           -6.07693764602386        4.26876179934626       -0.87407500306496
N           -7.75644787214041       -0.55593483046886       -0.35111398778021
H           -9.22597360399536        0.58754580859682       -0.34377556044039
C           -8.72740904162650       -1.62153689983843       -0.49715603459602
H           -8.42027155550636       -2.34137507376384       -1.26581279863182
C           -8.96236001219830       -2.37646050675008        0.81790661651308
C          -10.05998314715799       -0.98398648958990       -0.90559519339231
H           -9.23559246290044       -1.67650130166913        1.60574008295705
H           -9.76860537535886       -3.09197780343004        0.68268395615542
H           -8.05720041533551       -2.90326120481932        1.10805965798689
O          -10.11664743649090        0.32116819427288       -0.66505530013664
O          -10.97622985236498       -1.61064448211123       -1.36055040812321
