42
 energy: -62.486133515024 gnorm: 0.000479588142 xtb: 6.7.1 (edcfbbe)
N           -0.75175049213411       -1.02702978847493       -0.64135556752781
H           -0.26996199283919       -1.87414191480098       -0.91680469594931
H           -0.38568559599480       -0.74513995026561        0.26379428020697
H           -1.18651440650969        0.71680355770401       -1.23772351326618
C           -2.19405358690094       -1.24117595236475       -0.55004440637510
H           -2.49090643322376       -1.80953790710857       -1.44158375955192
C           -2.61872418038510       -1.99582837237117        0.71257682664847
C           -2.87858758493103        0.14681296891523       -0.62901861675474
H           -2.32525845526111       -1.43133281197476        1.59634644387643
H           -3.69385374469041       -2.14408420790733        0.74755612773857
H           -2.13884437337889       -2.97244582682206        0.74593266355998
O           -2.06053205627364        1.12493861946469       -1.07263055753690
N           -4.04001309900754        0.37578164524414       -0.28897923550278
H           -4.65324129653684       -1.36595941159366       -0.99043788093589
C           -5.39166900412835        0.61525771606471       -0.01076796474043
H           -5.50055237232922        0.60926590617492        1.08157708051977
C           -5.77791396246031        2.01624567758465       -0.54654546304442
C           -6.26407261695761       -0.50856853333168       -0.56435484482757
H           -5.05875485631403        2.70847386490642       -0.10263129381532
H           -5.60244172663750        2.01466803277601       -1.62428907385365
C           -7.19490522008421        2.52593287477284       -0.27534510319131
O           -5.60287182085064       -1.57436933641343       -1.04997645867151
H           -7.89139917167579        1.96060273002723       -0.89779228079939
C           -7.59740868488296        2.37072333885261        1.18862875650470
C           -7.27987256522858        3.99579572293669       -0.68721843216226
H           -6.88412697367168        2.87819750212532        1.83524507153638
H           -8.57840180145685        2.81030869660613        1.35363855264659
H           -7.64230612098935        1.32209263968630        1.47108985559426
H           -6.97281425565736        4.12350077372804       -1.72239310250707
H           -8.29978566613621        4.35853862447943       -0.58579694477633
H           -6.63386716406070        4.60665990914107       -0.05999246994848
N           -7.51880450836145       -0.40111481058956       -0.58725805326466
H           -9.12961827449481        0.46954056891399       -0.19418682014002
C           -8.34342127162788       -1.46094142908917       -1.12879464971042
H           -7.98024177562335       -1.79452684122972       -2.10850563517548
C           -8.41181985968424       -2.67199723381060       -0.18924560866474
C           -9.76844042170527       -0.91382560515829       -1.27949547898816
H           -8.74025402091483       -2.35767269375421        0.79981096724206
H           -9.11964330729611       -3.39419533187487       -0.58596043065747
H           -7.43186550474591       -3.13504390712563       -0.10846577926005
O           -9.98677668246988        0.20172810002824       -0.59304448059649
O          -10.61421494637272       -1.46545564207270       -1.92674813423178
