42
 energy: -62.486132527930 gnorm: 0.000658388261 xtb: 6.7.1 (edcfbbe)
N           -2.24111056677663       -1.28783401803518        1.67500749336080
H           -1.32465188595270       -1.71897110989433        1.67035874188205
H           -2.87676668932794       -1.92839626612355        2.14439517259004
H           -3.12512007768005        0.35600242645940        2.08831655026397
C           -2.71307329174150       -1.04788362287778        0.31141072542402
H           -1.89886738199748       -0.55557606437468       -0.23627341935128
C           -3.14618353895369       -2.30460098788758       -0.43990022374599
C           -3.85676311826003       -0.04962086205669        0.41369580623870
H           -3.92183369321052       -2.82317937310141        0.11973904676779
H           -3.55014714739590       -2.02477555551642       -1.40658984983700
H           -2.30036623137611       -2.97492378481669       -0.57983304984931
O           -3.85345003507299        0.69834867671641        1.53035624896539
N           -4.71805792130193        0.00777858410068       -0.50040832878389
H           -7.71090491567031        0.94136454235689       -2.06346663707251
C           -5.85006839333709        0.90847217724826       -0.39329735895433
H           -5.89343912241565        1.37183205174873        0.60232159712847
C           -5.74079240853502        1.99894758562314       -1.46367315681576
C           -7.06115329257987       -0.00315529635865       -0.52955000622607
H           -4.71893143991351        2.38314616425302       -1.43223127380446
H           -5.86551339201944        1.54784357646553       -2.45334211540960
C           -6.71701366995203        3.16877628003981       -1.25721908133604
O           -7.96707868811966        0.19936698880241       -1.50035514423922
H           -7.69029928422955        2.78614242159049       -0.92609740327028
C           -6.19884933387744        4.11836095140416       -0.17878051205118
C           -6.91353487442040        3.92889906470751       -2.56869075955921
H           -5.26102903676149        4.57119939840486       -0.49343847056637
H           -6.91865956752906        4.91256469853368        0.00517317970794
H           -6.02720098187115        3.59129521511089        0.75621154595101
H           -7.33806516133747        3.28887170356977       -3.34041961168548
H           -7.58454021880763        4.77179113308806       -2.42161097099882
H           -5.96036084237362        4.31022028643460       -2.92845199636091
N           -7.12181195045271       -0.93783557872618        0.31013762303386
H           -6.13576326007138       -1.80155576363539        1.43902553651086
C           -8.09191854665488       -1.99915676014091        0.36574885105138
H           -9.04252033615852       -1.62343615943227        0.76605989735231
C           -8.35481938127877       -2.71225646586944       -0.96301915311590
C           -7.52876371925360       -3.02156581298420        1.37638945762793
H           -7.40924007813036       -3.00070822617192       -1.41813501869137
H           -8.94408647383930       -3.60489490793166       -0.77123120376485
H           -8.89218914532582       -2.06146714570233       -1.64654552176978
O           -6.33739772263652       -2.68255390493048        1.85499933240840
O           -8.10385445283580       -4.02890207832973        1.68214866579297
