42
 energy: -62.486133517099 gnorm: 0.000479174218 xtb: 6.7.1 (edcfbbe)
N           -2.10843785214720       -1.27748530639192       -0.39371575498124
H           -2.00613587290658       -0.76757026349727       -1.26490156456896
H           -1.96909952811179       -2.26285256780635       -0.58651368169758
H           -1.58601153788163       -0.05257109060546        1.01678733981350
C           -3.42685825972329       -1.04965379922407        0.19807459537952
H           -4.24870593408182       -1.09688422996114       -0.52904083087702
C           -3.64188590303251       -2.05668232850214        1.32974638110219
C           -3.40230430781873        0.34005275251742        0.83296527518903
H           -2.84749046846939       -1.95394423632672        2.06646512406070
H           -4.59514333319666       -1.87065577178824        1.81536433698917
H           -3.63303648568627       -3.07530121429920        0.94845512337867
O           -2.19539579321266        0.64991263599250        1.32476904500729
N           -4.30647979587186        1.19410363983964        0.99119830903087
H           -7.96495473312661        1.59266561852739        1.04014677585720
C           -5.65241172086572        1.34830237455112        0.55772703127636
H           -6.04993454585102        2.11311305226456        1.24232641011756
C           -5.58289495291810        1.95476648584170       -0.87305864073075
C           -6.68396285669970        0.23290761937774        0.52868880290574
H           -4.77510893708052        2.68924487997474       -0.86408292125190
H           -5.29328252413966        1.14815007131735       -1.55080539657177
C           -6.85957290678451        2.62187185795025       -1.39661023174107
O           -7.94234319816850        0.65398692845682        0.81508511397612
H           -7.70477467983235        1.93304072268432       -1.29170002954093
C           -7.16845378038306        3.91894561538293       -0.65032374986018
C           -6.68939831945607        2.92184327908834       -2.88609509519903
H           -6.35672007260833        4.62962667578942       -0.78812386900422
H           -8.08289507155919        4.36530273172659       -1.03459714415075
H           -7.29531555822404        3.76093445542848        0.41856066345737
H           -6.52358627855175        2.00618494734319       -3.44906109801679
H           -7.57915490769587        3.40759060302107       -3.27940646260233
H           -5.83957694841058        3.58203388983421       -3.04447004955476
N           -6.45751503909352       -0.98892155448951        0.30734814450310
H           -5.52931721877294       -2.54320906391796       -0.43753171420722
C           -7.57746555744719       -1.91770254832587        0.33045323731245
H           -8.19199429765674       -1.77912978618080        1.22718489718986
C           -8.46982058082633       -1.76786115558556       -0.91164933958307
C           -7.04218289905452       -3.34857602033937        0.29789911217546
H           -7.87304785720749       -1.87144009519301       -1.81658064660711
H           -9.23402419348440       -2.54015637947889       -0.90022265446575
H           -8.94926046889552       -0.79310590798159       -0.91162683516564
O           -5.85358092846111       -3.45355199694882       -0.29455987070174
O           -7.65470049663603       -4.29387236327254        0.70547570954893
