42
 energy: -62.486133519474 gnorm: 0.000479161600 xtb: 6.7.1 (edcfbbe)
N           -1.07493192168561       -0.20897131443765       -1.51033038442317
H           -0.38679816060290       -0.77087164934296       -1.99673658241744
H           -0.62350373836605        0.18567107962818       -0.68969971071059
H           -2.43030251859579        1.11838681138548       -1.89785465521012
C           -2.22006190363640       -1.02124732709898       -1.10382527001957
H           -2.54663348920788       -1.58271170394479       -1.98936887235128
C           -1.93736119788330       -2.00034767679580        0.03283670005854
C           -3.35414399203685       -0.05685267683188       -0.76475246310122
H           -1.64998618874743       -1.45958894397359        0.93195081531440
H           -2.83057812036988       -2.57634954390103        0.24748549810935
H           -1.13393616323569       -2.67980156892860       -0.24526033818638
O           -3.27478593987121        1.12052407223550       -1.40385036074704
N           -4.23718250819812       -0.43750766305931        0.04081392565618
H           -5.51527086799098       -1.83242661702965        1.53160776928020
C           -5.42705614026677        0.27503013302711        0.46020346101877
H           -5.30092052184782        0.45916155136803        1.53769309211618
C           -5.77592366252308        1.58490773297007       -0.24912426761733
C           -6.50048473219906       -0.78444892138912        0.29252820618533
H           -4.92542288985479        2.26269253964659       -0.17381523125537
H           -5.93553801093443        1.36358364728419       -1.30459810320219
C           -7.01833412684103        2.27575251643013        0.32632817346000
O           -6.37545123852173       -1.86351009227608        1.09165496095872
H           -7.80731105395563        1.52946159181284        0.45696465186597
C           -6.72410398572476        2.92068189848623        1.67955969002557
C           -7.51330069162473        3.33640646804948       -0.65528181115602
H           -5.93487512875694        3.66357960644447        1.58176759910199
H           -7.61343553078157        3.41646973778441        2.06204452450776
H           -6.41220297118428        2.18198589739844        2.41403121289477
H           -7.78432847505170        2.88584911885475       -1.60686153380691
H           -8.38795704976093        3.84567262779531       -0.25723403516731
H           -6.73709653730500        4.07748907808649       -0.83403594994663
N           -7.35828189999851       -0.68887605450312       -0.62108472352814
H           -8.00279171408503        0.18172681580989       -2.05969748697345
C           -8.34043761833213       -1.71551435969560       -0.87710254412174
H           -7.88653935068808       -2.71413247448947       -0.90945726178133
C           -9.45684680323219       -1.71473375534008        0.17321645083206
C           -8.96464490817779       -1.40205881279614       -2.24594811914869
H           -9.89731770206263       -0.72219644658356        0.24748904315830
H          -10.22611951411488       -2.42308138264604       -0.12091800185154
H           -9.05356984289620       -1.99856912487622        1.14196619688733
O           -8.63361355287940       -0.20478749940956       -2.71340973043210
O           -9.69680889929942       -2.15847312951329       -2.82095941990033
