42
 energy: -62.486133517988 gnorm: 0.000479086120 xtb: 6.7.1 (edcfbbe)
N           -2.09581427617333       -0.48564847252674        1.03425384171062
H           -1.51173968561062       -1.12531457995517        1.56231573599848
H           -2.77865673896108       -0.07717158746608        1.66403006007718
H           -3.66461785023778       -0.93559954087743       -2.28549613996370
C           -2.80078980172303       -1.19483622740180       -0.01466191885394
H           -2.10015029902765       -1.32667126740377       -0.85508678047064
C           -3.33883816958053       -2.57665809685287        0.40621939463741
C           -3.98276800180746       -0.37080731327193       -0.46654016708824
H           -4.02725160135008       -2.45920677884182        1.23971478455871
H           -3.86671056368598       -3.05655452424366       -0.41523727473198
H           -2.51519467668982       -3.21962632797149        0.70993635982727
O           -4.30413892318840       -0.41283942035133       -1.78551841870023
N           -4.65707536550523        0.23618796358559        0.40099975178017
H           -7.19908456153122        0.96749380052674       -2.03247540101348
C           -5.83853773863024        1.00531247466376        0.05915916426850
H           -6.17341016755844        1.43012426128866        1.01430255519772
C           -5.55095280015244        2.14646580507744       -0.92310663826929
C           -6.91027033878289        0.02363231645876       -0.38763696851807
H           -4.59685265219771        2.59048513759484       -0.62945675320180
H           -5.40598080013940        1.74278532834108       -1.92978904684214
C           -6.63221805598889        3.23960931877853       -0.92241060071799
O           -7.53832732025278        0.19377970960251       -1.56430206342031
H           -7.62349420939121        2.77897268644500       -0.82912484615431
C           -6.44298887761303        4.18707979064900        0.26032134464327
C           -6.58368239875272        4.02712375323305       -2.23163465164678
H           -5.49143235688488        4.70787622036058        0.17791502279422
H           -7.23861521608323        4.92810024119985        0.28339007024357
H           -6.45622387226160        3.64491103550279        1.20234052148407
H           -6.78068641050881        3.38631460404738       -3.08963193658832
H           -7.32763404016413        4.82006169784697       -2.22495968485937
H           -5.60321073744897        4.48007757656717       -2.36179112741866
N           -7.14706811131236       -0.94596621518878        0.38055866044121
H           -6.87189434959952       -1.74930386899911        1.95292404836636
C           -8.08910769867991       -1.99227897912078        0.06339394605228
H           -9.07148704342694       -1.58516130437562       -0.20733054399203
C           -7.59716484279309       -2.89455004878235       -1.07397736531277
C           -8.23835191036462       -2.85110410323539        1.33050456162336
H           -6.60554348761354       -3.27628296222469       -0.83737359810653
H           -8.28126959814871       -3.73047736883514       -1.18872303365492
H           -7.55027885697082       -2.33275277446539       -2.00319889161369
O           -7.38022479199080       -2.52784770770098        2.28939461385449
O           -9.03645206971490       -3.74176001727683        1.42672486416260
