42
 energy: -62.486133513230 gnorm: 0.000479380224 xtb: 6.7.1 (edcfbbe)
N           -1.66619635934972       -1.78909668859115        0.16466978969841
H           -1.42573060004515       -2.77266722781561        0.12746278275881
H           -1.39545309329158       -1.44418047970502        1.08170171111110
H           -1.49005395622640       -0.15485559653768       -0.79507973366548
C           -3.10310288746471       -1.59351107508015       -0.02715029379104
H           -3.40220746326871       -2.19358682757947       -0.89615454638600
C           -3.96205126981651       -1.97558178803283        1.17489657127999
C           -3.33188647261179       -0.12012315582515       -0.41606232811563
H           -3.64962678506654       -1.41269216059552        2.05290846173247
H           -4.99889911391873       -1.73339919317267        0.96244947820076
H           -3.87628453705417       -3.03898061016471        1.39051006486505
O           -2.21746639307472        0.49489705882591       -0.87728155303726
N           -4.40216082936075        0.47722795994041       -0.32888031643293
H           -7.05752663293148        0.83048729858006       -2.32639924528521
C           -5.65613425934973        1.07850838168136       -0.29591383926345
H           -5.82349287272295        1.38427530988027        0.74587102444557
C           -5.71492233920548        2.33149973994699       -1.19558252870430
C           -6.72337600491159        0.03187615296549       -0.61659094676913
H           -4.85141415766254        2.94466373041295       -0.93251450176846
H           -5.56654746144386        2.03721864760803       -2.24011033731879
C           -6.99602170637282        3.16407846550333       -1.03989188169104
O           -7.33401779906462        0.05845761275262       -1.81536606547238
H           -7.87011910508643        2.50176651297179       -1.02284441478064
C           -6.98170854831985        3.95323346548841        0.26760121822941
C           -7.13910568801236        4.12231012084743       -2.22242648298860
H           -6.13229128578942        4.63216773439281        0.29037452586834
H           -7.89214329622446        4.54031899128945        0.36283676465865
H           -6.91713253945424        3.29087380193896        1.12700370535831
H           -7.20800843581656        3.58103859250818       -3.16438368253919
H           -8.03520954094804        4.72872377021638       -2.11472590285460
H           -6.27985865071855        4.78727982908507       -2.27299367593776
N           -6.92354489563362       -0.89378984292618        0.21816781615031
H           -7.00191083900473       -1.37890827065003        1.97933971870932
C           -7.84452206553020       -1.97604224627223       -0.05510708115131
H           -8.76760204927506       -1.60916374448071       -0.52336298721793
C           -7.22723035935153       -3.04191363461662       -0.96573282039022
C           -8.21441652661525       -2.62163236047396        1.28906448060091
H           -6.28607762391231       -3.39085026112060       -0.54671008901241
H           -7.91381526066809       -3.88001853923469       -1.04476243799710
H           -7.04495402815085       -2.62738268785370       -1.95385329623917
O           -7.57941835366237       -2.09477325469190        2.33054894549215
O           -8.99881542511383       -3.52358900455273        1.38443369377321
