42
 energy: -62.486133510394 gnorm: 0.000480321951 xtb: 6.7.1 (edcfbbe)
N           -1.12587064367159       -1.70704030109104        0.22924582624748
H           -0.90447210450470       -1.55614222071117        1.20824515706751
H           -0.25799996883553       -1.87876949606560       -0.26521166022258
H           -2.84997843124698       -2.50762020382418        0.24903560808890
C           -1.82664879455930       -0.55350774998872       -0.33222242610093
H           -1.46673833800773        0.41262587027260        0.04608052896820
C           -1.71433294822179       -0.56482955885863       -1.85678565161852
C           -3.29879609493016       -0.69227820722086        0.03600467130180
H           -2.07494600808521       -1.51188612772241       -2.25261922765755
H           -2.31330286120955        0.24107280776217       -2.26979928141358
H           -0.67896311463051       -0.42808675210530       -2.16200258840055
O           -3.66816595649510       -1.96890792122213        0.30766669181690
N           -4.00739751226647        0.33526469709673        0.04540568606320
H           -5.07461137621425       -1.62048930745404        1.51296398801899
C           -5.41789230343566        0.54154583122787        0.23252721869617
H           -5.48271318359149        1.15043846682028        1.14938580927782
C           -5.88848666741458        1.40782217452240       -0.94999567386229
C           -6.35445930860981       -0.63134943868447        0.48134543089368
H           -5.03248398070687        2.00240832717471       -1.27300801533145
H           -6.16508641337796        0.74104782461729       -1.76707923590848
C           -7.05645257032532        2.34516452200054       -0.62187789662642
O           -6.03573366542853       -1.53785876953067        1.42271845509681
H           -7.79897091231121        1.78820307646513       -0.04388185628457
C           -6.58858502835044        3.54294292190512        0.20232636762929
C           -7.70629609156406        2.83380223112198       -1.91536755064336
H           -5.86999734944684        4.13301588990734       -0.36274878775605
H           -7.43251105045967        4.18094373846507        0.45434690295394
H           -6.11624228774447        3.22794034223551        1.12948673122705
H           -8.09583040454243        2.00251437905370       -2.49754879068019
H           -8.52961180054509        3.50883364501916       -1.69456774689382
H           -6.97970613492147        3.36918194688639       -2.52319543122170
N           -7.47478934949324       -0.63231535382477       -0.09853265208038
H           -8.51026451818676       -0.10129395022930       -1.48192371744890
C           -8.46358702674281       -1.65253550635937        0.15790741953610
H           -8.01386051473061       -2.64664673538918        0.27603862112063
C           -9.28240311667078       -1.32881497825768        1.41301339198580
C           -9.41601146146735       -1.66901692538781       -1.04606028560055
H           -9.71558355916027       -0.33389057096784        1.32832754059811
H          -10.08138598146147       -2.05699788961038        1.51953265110582
H           -8.64061961582500       -1.36332327555830        2.28985633352070
O           -9.26271395201486       -0.62350032895122       -1.85062405250881
O          -10.23168886279924       -2.52969281225363       -1.22747347256009
