42
 energy: -62.486133517030 gnorm: 0.000479243281 xtb: 6.7.1 (edcfbbe)
N           -2.43642736127896       -1.00232905809797       -2.10045812010111
H           -2.59296157213980       -0.25936625063410       -2.77372489194404
H           -2.47253243834577       -1.88305179621060       -2.60076309491700
H           -1.36772296144345       -0.19508712492730       -0.77509561403239
C           -3.45979093938460       -0.96915528638582       -1.05187346093260
H           -4.46498285338732       -0.78752697346620       -1.44931851002733
C           -3.42926427535862       -2.29970473534395       -0.29802346852341
C           -3.06646421174218        0.16877509564454       -0.09799454034132
H           -2.42488344521303       -2.49067010437864        0.07439340108946
H           -4.11606303695090       -2.28873644985494        0.54243355328581
H           -3.71845494544345       -3.11101132995016       -0.96354737189436
O           -1.74507894344218        0.36567583836542       -0.06181213907180
N           -3.76765227169421        0.92927433843904        0.61900043794613
H           -5.40519921853523       -0.78337614859219        2.45574252007893
C           -5.18444078975998        0.99016202797030        0.84533988994814
H           -5.28089822811471        1.29965194290956        1.89690036251723
C           -5.75803983703887        2.10437592418258       -0.04792183897022
C           -5.94145637720505       -0.30734025954630        0.67069000334215
H           -5.11829639399122        2.97956164746112        0.07350346313714
H           -5.68056744440398        1.77104488249758       -1.08383317740646
C           -7.21133595387816        2.47824091204558        0.26018437807861
O           -5.92472715966559       -1.15271781461014        1.72975760999617
H           -7.81217145986044        1.56313893251475        0.27324566697104
C           -7.34424662981859        3.17417460991438        1.61295913078634
C           -7.74306424463102        3.39010519444974       -0.84437746357020
H           -6.70915093972658        4.05645360205268        1.64868808698282
H           -8.37356449327979        3.48627302070993        1.77449976792003
H           -7.06400624721457        2.51510801959454        2.43062909230093
H           -7.69608232278111        2.89531284121447       -1.81159246455452
H           -8.77792418379788        3.66119254566709       -0.64947999337625
H           -7.15392912955978        4.30293381242615       -0.89668188135002
N           -6.50402009978433       -0.59218595920789       -0.41865825396060
H           -6.78666565994489       -0.30470062253507       -2.25254042153504
C           -7.15015858312490       -1.86328148768542       -0.64952336437164
H           -6.71379198674829       -2.67925118773221       -0.06179046618516
C           -8.65098905414603       -1.76852944056157       -0.35132489951402
C           -6.98596695236656       -2.16181892417081       -2.14445883502548
H           -9.09684389663418       -0.95606948237168       -0.92257836511284
H           -9.13513376663128       -2.70272725226768       -0.62225103476584
H           -8.80343325506507       -1.57975119529605        0.70882275839343
O           -6.83493060001911       -1.06049009501459       -2.87861793419570
O           -7.00291769953475       -3.26526922442996       -2.61037239264054
