42
 energy: -62.486133529780 gnorm: 0.000477351780 xtb: 6.7.1 (edcfbbe)
N           -1.48808482826124       -0.97997344874634       -0.34392836587094
H           -0.86308671376395       -1.77658866146988       -0.36512852100057
H           -1.10826203344697       -0.31196492671622        0.32146719090853
H           -2.42647503590978        0.15804518790409       -1.57012146262137
C           -2.83109161959717       -1.38233918566034        0.07547866228769
H           -3.10229689889492       -2.26796829275983       -0.51389620359085
C           -2.96933435616363       -1.70565853305597        1.55997308888198
C           -3.78840170059605       -0.27399150128172       -0.35300635666474
H           -2.67317008668335       -0.84696406202239        2.15885688546329
H           -4.00539554000823       -1.93574808646129        1.78214358496169
H           -2.34361982632403       -2.55587510045221        1.82396405654812
O           -3.34194162848967        0.45812367968242       -1.39557153709933
N           -4.88065828052550       -0.16456075124181        0.24936752965875
H           -7.25244505875884        0.94433361691736       -2.14404585792291
C           -5.94653589814406        0.76835167181923       -0.03028259391386
H           -6.25736345719943        1.12203999558971        0.96272480935319
C           -5.62487248268099        1.98276526328233       -0.90987668472156
C           -7.08901914169373       -0.10175583880728       -0.54169730112833
H           -4.67805445695885        2.40029099054431       -0.56339708257839
H           -5.45398899526676        1.66664414029700       -1.94351880731653
C           -6.70025647304677        3.08097569696396       -0.84000013805879
O           -7.65130925513018        0.16443583417739       -1.73637367127017
H           -7.69706674622588        2.62510231315147       -0.79865210148271
C           -6.52614957958891        3.93021851365305        0.41767011559357
C           -6.62366909873629        3.97083524607463       -2.08052019033600
H           -5.57105660600255        4.45077633222778        0.39282975832868
H           -7.31840668580057        4.67209376528869        0.48660975065668
H           -6.55935962572840        3.31504375127306        1.31351819543961
H           -6.80984416955652        3.40284919597882       -2.99065497356420
H           -7.36166448688992        4.76754396199894       -2.02329289994376
H           -5.63731330588220        4.42346109721901       -2.15760705726429
N           -7.43097828882146       -1.07745328493032        0.17388977235193
H           -7.20453525802442       -2.00270312220916        1.68717805468735
C           -8.45058249745775       -2.02619653347671       -0.20090133221949
H           -9.39416747706625       -1.52692446075107       -0.45540437817871
C           -8.02802609997089       -2.91290744806818       -1.37781489363817
C           -8.68029467825986       -2.92751448912739        1.02464404319465
H           -7.06385074930756       -3.37135224372982       -1.16567804991634
H           -8.77044793160540       -3.69305207680140       -1.52130836883089
H           -7.94716112299181       -2.31843163368134       -2.28398774772323
O           -7.79158842437362       -2.73894120585404        1.99022520447129
O           -9.56436467469288       -3.73709121046544        1.08506117034175
