42
 energy: -62.486133509714 gnorm: 0.000480740316 xtb: 6.7.1 (edcfbbe)
N           -2.14425329793551       -1.99115202260853        1.36420182734475
H           -2.30678106412542       -1.87183602549400        2.35817225501205
H           -1.18671730684600       -2.29583241299286        1.23599265787107
H           -3.87103568382397       -2.46643615648458        0.72737256283795
C           -2.40160584592204       -0.74822375853514        0.64155140866212
H           -2.01142960941607        0.14872028403703        1.14147566619465
C           -1.80499855069965       -0.83926353017428       -0.76294478319618
C           -3.91910852630709       -0.60903666249132        0.51467516812836
H           -2.18882537666113       -1.71901470613668       -1.27465609381151
H           -2.07386157668140        0.04611364535250       -1.33055108487225
H           -0.72024885698635       -0.90954077900965       -0.71166883826857
O           -4.55326930190357       -1.79090351803884        0.51447460147353
N           -4.37133141591295        0.54780094867900        0.37617683265733
H           -7.82791673844048        2.01938286820567        0.70161840234684
C           -5.68430615008255        1.09354289922120        0.20240037404979
H           -5.69835470295868        1.96937369820579        0.86799749368753
C           -5.69973038883871        1.57631138634796       -1.27602925274261
C           -6.95151276212751        0.30593959429567        0.46259065750914
H           -4.72497372067883        2.03364869659927       -1.45913091452749
H           -5.76713810324825        0.67955109605820       -1.89624186857206
C           -6.79400431716552        2.56271772311192       -1.69632148595644
O           -8.05043982345896        1.08094633550419        0.68931844326627
H           -7.77977237360753        2.13743662761078       -1.48116005986466
C           -6.65272651172407        3.91049887564244       -0.98919568242305
C           -6.71039875519841        2.77422048373738       -3.20862561787628
H           -5.69431625892207        4.36159741686142       -1.23717137987305
H           -7.44176904236380        4.58778496030241       -1.30874348949650
H           -6.70751780484240        3.82112653679037        0.09436728516519
H           -6.84438781185667        1.83337373087721       -3.73694895707993
H           -7.48317791758170        3.46454925201171       -3.53858577080728
H           -5.74176224861776        3.18704575348352       -3.48195028403936
N           -7.01754539492155       -0.94558878503211        0.52187787120148
H           -6.20255326334209       -2.64544391037571        0.76014211150968
C           -8.27699434002434       -1.60701183949611        0.77374917720483
H           -8.84733306716708       -1.10653567868236        1.56781874531803
C           -9.14320071831559       -1.66061113832502       -0.49020076346085
C           -7.98678218816314       -3.04574895094573        1.21867009837051
H           -8.57636267804014       -2.09973498270126       -1.30878240593732
H          -10.02112670324451       -2.27030177178403       -0.29578291070178
H           -9.45510311814921       -0.65764052928338       -0.77075795610471
O           -6.72473014909734       -3.41838208363174        1.08580461843992
O           -8.84678781675024       -3.77546917813509        1.63393646057421
