42
 energy: -62.486133514954 gnorm: 0.000479308886 xtb: 6.7.1 (edcfbbe)
N           -2.43589567762150       -0.82857254016235       -2.06249863991888
H           -2.52739938834332        0.00145181713663       -2.63968532705564
H           -2.49718323982446       -1.63620622984590       -2.67223034064263
H           -1.38072670166985       -0.27086939549367       -0.58885619029202
C           -3.49599229420857       -0.87252041148208       -1.05191747879959
H           -4.47849403738867       -0.59619880818647       -1.45163813041357
C           -3.55105577605240       -2.28406531711017       -0.46348123172767
C           -3.08784257331335        0.11247698457045        0.05133688403245
H           -2.55764961190014       -2.58559884653917       -0.13706689207857
H           -4.22200133496653       -2.32486977971751        0.38922925842917
H           -3.90609575634081       -2.98903938202149       -1.21291847986589
O           -1.76212590567528        0.21661209480140        0.17409287662459
N           -3.78589720668962        0.80874287313401        0.83494883867639
H           -5.51619710035758       -0.83537478009242        2.54722574845011
C           -5.21414682378794        0.93515004074559        0.95245327850173
H           -5.37416782116840        1.26584706018096        1.98949630125847
C           -5.69040619280578        2.04787987109926        0.00269178551847
C           -5.99055850415231       -0.34708313510038        0.74989730438477
H           -5.03459609837790        2.90706687141426        0.15219934673361
H           -5.55408758822751        1.69441021141458       -1.02041507622228
C           -7.14912589624845        2.47014434192458        0.20526444545755
O           -6.02912424987718       -1.18982009331708        1.80919151610141
H           -7.77537917171243        1.57216641520978        0.20535960408117
C           -7.34733882196908        3.20933647727110        1.52666955043126
C           -7.58365824634354        3.36346055662262       -0.95580427610636
H           -6.69762810804237        4.08043169478980        1.57391276433870
H           -8.37778953602583        3.54526535272684        1.61748909759750
H           -7.12852381610164        2.57050233985347        2.37833406766213
H           -7.48750600312234        2.84116961350414       -1.90478086501281
H           -8.62140541035219        3.66549459358112       -0.83608245153595
H           -6.96850914234695        4.25977407068771       -0.99304602868854
N           -6.50021067442127       -0.63131078148890       -0.36555337724777
H           -6.76738268642933       -0.31775712995609       -2.19645261039827
C           -7.15874834572892       -1.89126941993458       -0.62114215185830
H           -6.74384424490672       -2.71857283308099       -0.03397179663496
C           -8.66367308460586       -1.78196126348251       -0.34820064879931
C           -6.97189218759304       -2.17423246350353       -2.11603887948118
H           -9.09150619735252       -0.96172579194438       -0.92204359982853
H           -9.15291156915852       -2.70932809270749       -0.63297720070078
H           -8.83200193302832       -1.59801316100597        0.71028151862756
O           -6.81040950733902       -1.06390414838806       -2.83429658518120
O           -6.98484620884511       -3.27171448694209       -2.59606191859805
