42
 energy: -62.486133519289 gnorm: 0.000479049343 xtb: 6.7.1 (edcfbbe)
N           -1.15456991087117       -1.74937712055312        0.31568700469881
H           -1.01948145466008       -1.69090972214274        1.31960497308302
H           -0.24402413702583       -1.85636790790580       -0.11524153089461
H           -2.86356607869073       -2.57040343725523        0.08432547604268
C           -1.83236008842503       -0.55638883627434       -0.19001460333974
H           -1.51614968643401        0.37613805700004        0.29585029853995
C           -1.61220014593657       -0.43500620713844       -1.69807359666385
C           -3.32365655729344       -0.74383332446600        0.05689100487084
H           -1.92613649397319       -1.34911408490862       -2.19772248142376
H           -2.19374241213953        0.39619104375179       -2.08495445328134
H           -0.56032619879046       -0.26066961005886       -1.91458963218576
O           -3.69283435013064       -2.04863902404223        0.13547620677708
N           -4.04311335581996        0.27047784741536        0.15506182815215
H           -5.14573507712079       -1.86096560993148        1.25080208764202
C           -5.46326335193305        0.46149129560626        0.25547481388647
H           -5.58909293123024        1.02193706888332        1.19648224668232
C           -5.86160667406112        1.39112292145091       -0.90697492640025
C           -6.41870166787840       -0.71656016186577        0.38582836301516
H           -4.97273159365765        1.95959886009245       -1.18565225012754
H           -6.14622169639296        0.76897050625681       -1.75596786004796
C           -6.99468659816767        2.36815872250267       -0.57149131070299
O           -6.10663549795623       -1.73827881786080        1.20131834482789
H           -7.77301948952499        1.82558066811956       -0.02787036908097
C           -6.49141249504908        3.51474399753365        0.30314531839145
C           -7.59326850512804        2.92920788321522       -1.86026706642222
H           -5.74550600432868        4.09866577802542       -0.23213103663839
H           -7.31340408126404        4.17385339679732        0.57254783326748
H           -6.03979469640329        3.14601611470846        1.22071809351628
H           -8.00723436855401        2.13712644027711       -2.47903575120250
H           -8.38974175809924        3.63355462750717       -1.63291922800527
H           -6.82992910529518        3.45094417750473       -2.43404044923450
N           -7.54736817618949       -0.62131758162356       -0.17065978466543
H           -8.57261461041309        0.08086660605852       -1.48321047107774
C           -8.55810122817463       -1.64157858545229       -0.02182412190778
H           -8.13122105717060       -2.65285231287117       -0.02631146928626
C           -9.35666258029924       -1.44956916354404        1.27260467621467
C           -9.52158812653165       -1.49799021081455       -1.20861800938878
H           -9.75866367218388       -0.43903683438004        1.31523209858375
H          -10.17749046799404       -2.16071352717510        1.29777560978103
H           -8.71006351050998       -1.61110692153415        2.13153321117647
O           -9.34196334593316       -0.37765464730257       -1.89881285844492
O          -10.36630802775812       -2.30833798745950       -1.47104118481701
