42
 energy: -62.486133510126 gnorm: 0.000480146169 xtb: 6.7.1 (edcfbbe)
N           -1.04478934871584       -1.55433900377880        0.47879546537387
H           -0.96027014295616       -1.41649435539485        1.48044407213582
H           -0.11152762600905       -1.63001814952015        0.09200388702332
H           -2.65433547249420       -2.49793286397724        0.29842370768064
C           -1.77835677287109       -0.45089464360353       -0.13932358927780
H           -1.55269070192205        0.53170458101094        0.29538659714463
C           -1.48982172396983       -0.41070093665966       -1.64019819523782
C           -3.26550032105687       -0.72934735968956        0.05361996483977
H           -1.70879286537826       -1.37658761709351       -2.09114117722330
H           -2.10943865035094        0.34780355906416       -2.10878289347406
H           -0.44381191125523       -0.17048618426336       -1.81866869240080
O           -3.53014480490073       -2.05537874173842        0.23183310046261
N           -4.05665654870932        0.22939968626432        0.00323510643977
H           -5.15680953163497       -2.08477327070576       -0.23324942035384
C           -5.47338566777326        0.43460876729994        0.08809284642846
H           -5.63356424330759        0.95302291916304        1.04022023834394
C           -5.73572812438990        1.44460429402637       -1.06338398186704
C           -6.48270093868307       -0.70392767908328        0.01471401770544
H           -4.91131502252194        2.15888800228216       -1.01900155205809
H           -5.64936960108327        0.89911877813878       -2.00638309970448
C           -7.05737516376885        2.21397860863705       -1.05697089503012
O           -6.12039176872882       -1.95481981125300       -0.28475307416183
H           -7.87678200461579        1.50687063159523       -1.20068137081205
C           -7.27555478042763        2.97227534569912        0.24864466995986
C           -7.06338055319804        3.19185703296126       -2.23221676939820
H           -6.44934495277346        3.65662227344653        0.43226107215157
H           -8.19472431950005        3.55047220814450        0.19457090409312
H           -7.35513014554860        2.29001513677368        1.09071334894055
H           -6.91151791960954        2.66780204482557       -3.17293516931375
H           -8.01609967433297        3.71272588050445       -2.28235641783046
H           -6.27302360118014        3.93141091360331       -2.11931223736570
N           -7.70021269111831       -0.38459617641095        0.15582953364703
H           -9.04640235406949        0.83053679955180        0.47547449709047
C           -8.74572315270757       -1.37844029632382        0.03834863470339
H           -8.62636510249873       -1.98706439792309       -0.86691778981889
C           -8.79989346788174       -2.31205806218951        1.25487966169919
C          -10.08446925928311       -0.63366377962438       -0.03464060878144
H           -8.87721776661070       -1.72632440298774        2.16919595689090
H           -9.66906856282784       -2.95850188396797        1.17142504366162
H           -7.90036148437812       -2.92042082651816        1.29696267195840
O           -9.99990728458858        0.64565642978345        0.31230181446024
O          -11.11423522664670       -1.16462908068514       -0.34752510951368
