42
 energy: -62.486133512360 gnorm: 0.000479684014 xtb: 6.7.1 (edcfbbe)
N           -1.35554125665325       -0.44510687555933       -1.86143062994654
H           -0.73919722172090       -1.08690692420497       -2.34468352248549
H           -0.78524432191252        0.11711750493831       -1.23576003279545
H           -2.79983769472439        0.74759447224954       -2.27325434112622
C           -2.36990376067382       -1.16704848962981       -1.09562647021060
H           -2.79324381506044       -1.93238798224423       -1.75928842774318
C           -1.85391759862288       -1.83632180052988        0.17557556484566
C           -3.50240967785963       -0.18330432488969       -0.80718758764869
H           -1.42734960502317       -1.09212703239813        0.84507302267543
H           -2.67705717512050       -2.32493158484296        0.68509873992071
H           -1.09231904637247       -2.57485976199429       -0.06647932430779
O           -3.57316226219040        0.83371691748068       -1.67833821682861
N           -4.25673040641313       -0.41721255806246        0.16829006098157
H           -5.87887005227490       -1.50633711582279        2.06053488514583
C           -5.42679033397710        0.33418406862405        0.57315699295666
H           -5.27444615254398        0.55641541920192        1.63991185176180
C           -5.76232407453261        1.62577848081154       -0.17586244130116
C           -6.53141633376751       -0.69863334567456        0.45553348023731
H           -4.89997464044486        2.29222857473936       -0.13084684075243
H           -5.94061543718427        1.37678374985928       -1.22098382116949
C           -6.99227830720843        2.34363816417648        0.39282543318708
O           -6.62174416643013       -1.60329571339647        1.45177174218619
H           -7.78247069938415        1.60405813802098        0.55823289828631
C           -6.68062449818836        3.03465717630848        1.71898134372719
C           -7.49754583892748        3.36933745877554       -0.61994853964706
H           -5.89213877754457        3.77249882747175        1.58459906402610
H           -7.56458485926703        3.54491935309138        2.09502346968611
H           -6.35937962606377        2.32234791838591        2.47522921564203
H           -7.79116887612461        2.88167231814821       -1.54615185984200
H           -8.35920788696080        3.90346680696261       -0.22582377413586
H           -6.71798894893697        4.09402907121143       -0.84493123858237
N           -7.23358969119827       -0.74741901362427       -0.58643791114438
H           -7.50387097544972       -0.22822965559705       -2.28675058879843
C           -8.23545916096568       -1.76437571244910       -0.79985608118946
H           -7.87436757641777       -2.76149978949522       -0.51725967383922
C           -9.52039748997963       -1.46366771468903       -0.02040740640807
C           -8.56518558878828       -1.75744227919476       -2.30083616357974
H           -9.87267843502556       -0.46159474171214       -0.25776731122060
H          -10.28490588751248       -2.18405210773946       -0.29712216624841
H           -9.32941918995977       -1.53022816604592        1.04781487049950
O           -8.03769706322568       -0.72757940334909       -2.95058996322097
O           -9.24913684972960       -2.59190812107554       -2.82509312536657
