42
 energy: -62.486133505612 gnorm: 0.000480604394 xtb: 6.7.1 (edcfbbe)
N           -2.52456632828352       -1.84786344922531        1.71435284174071
H           -2.70571380541921       -1.48756403857983        2.64556868873113
H           -1.56600208739360       -2.17391505897887        1.68494121452712
H           -4.25206838251844       -2.44616778364680        1.17649823805714
C           -2.75767008485280       -0.81793119005265        0.70528406969568
H           -2.35494117212206        0.16861877967962        0.97194120245109
C           -2.15511568607170       -1.26293110340946       -0.62751543731296
C           -4.27190310488445       -0.69049949809994        0.53083951808193
H           -2.55857955568376       -2.23144405040592       -0.91428270299214
H           -2.39735399050213       -0.53710755319146       -1.39752344584852
H           -1.07305775092416       -1.34487401597739       -0.54786778180039
O           -4.92363099592897       -1.83308040577775        0.80346626691638
N           -4.69754732283613        0.41474114575865        0.13268294961714
H           -8.03488403200244        1.34760911544706       -1.46301626283310
C           -5.98974556603504        0.95402396643024       -0.17920200273467
H           -6.21268324289960        1.63431653960975        0.65971921570181
C           -5.78882944191425        1.81409376083336       -1.45155909453129
C           -7.21220077660610        0.05298359567712       -0.28549002577016
H           -4.71165394032478        1.92391316077610       -1.58521135070612
H           -6.15879593267207        1.27048387653078       -2.32567279453700
C           -6.41149655357245        3.21814948447488       -1.38130366303289
O           -8.23523541764815        0.49376152123421       -1.06180192827358
H           -7.40529412328375        3.17023147360396       -0.91572209785094
C           -5.54443597951136        4.14167233952517       -0.52828830484792
C           -6.56726250955243        3.79594848512667       -2.78741765117643
H           -4.57731253877886        4.29138004301409       -1.00244811227374
H           -6.02275661960756        5.11091087467496       -0.40743030764704
H           -5.37619986627582        3.71590958965819        0.45761860888842
H           -7.23106930440324        3.18383228486432       -3.39554706583199
H           -6.97929891763837        4.80127280107537       -2.74204718013601
H           -5.59986053210125        3.84512948839682       -3.28210957613826
N           -7.29404966302017       -1.01404622568476        0.36825160103423
H           -6.61334907382257       -2.23926635235659        1.63741848479218
C           -8.46586217170823       -1.85236720173180        0.33605556358024
H           -9.39616783618719       -1.27004800190068        0.33275908130682
C           -8.45103199055153       -2.77604611227537       -0.88806926285359
C           -8.42692482703928       -2.73320183078618        1.59178866724699
H           -7.51103377084512       -3.32319722280760       -0.92464682040235
H           -9.27519949265255       -3.48078360522950       -0.81967679283814
H           -8.55411775060487       -2.18731551302779       -1.79650893930692
O           -7.22950780277324       -2.81651171918695        2.15123480391447
O           -9.39178134709591       -3.31484620983582        2.00887327262532
