42
 energy: -62.486133500263 gnorm: 0.000482668856 xtb: 6.7.1 (edcfbbe)
N           -1.09903103131000       -1.67928493261168        0.40462491810706
H           -1.09275903235974       -1.71204831172954        1.41888025451823
H           -0.13732744990201       -1.69252656916793        0.08578823994769
H           -2.69203919261487       -2.56068347891376       -0.09190577047334
C           -1.79002658033990       -0.48173855770400       -0.07174640222380
H           -1.58662836153790        0.41775262355445        0.52363189796971
C           -1.41540283902900       -0.21471420936488       -1.52996704948576
C           -3.28596331046740       -0.77104953915315       -0.01109636776741
H           -1.61744600617096       -1.09509202629857       -2.13689456863324
H           -1.99913380940520        0.61844674538670       -1.90953120075153
H           -0.35854694938323        0.03014571488149       -1.61136628221591
O           -3.56016943782015       -2.10123267965596       -0.13231050692837
N           -4.07007581313691        0.18748780325138        0.10534775191520
H           -5.21410649721113       -2.07484079922628       -0.45678633407268
C           -5.48674614649847        0.40074577205588        0.13253708590511
H           -5.67820802404885        0.90087674622625        1.08816194503482
C           -5.70349015201371        1.43515125251864       -1.00737536861894
C           -6.51016950571080       -0.71832925827911       -0.00468245635348
H           -4.87776866766057        2.14486834723780       -0.92635372348353
H           -5.59406853996314        0.90657847710130       -1.95803172812173
C           -7.02233982225045        2.20886522947267       -1.01876360448013
O           -6.17872533122502       -1.94135365540762       -0.42563484157939
H           -7.84546796030592        1.50180924392391       -1.14306681775960
C           -7.23590195199340        2.99775547487293        0.26961384555695
C           -7.02590911159731        3.15925597613513       -2.21631257014849
H           -6.41095746146622        3.68857107543685        0.43235826691860
H           -8.15724413862140        3.57114377405036        0.20663643390956
H           -7.30857455115185        2.33629767111089        1.12844310899839
H           -6.88565448902412        2.61205855931729       -3.14566785763824
H           -7.97317638131877        3.68915274719834       -2.27285180061918
H           -6.22693700460926        3.89248512267081       -2.12508070333417
N           -7.71596169680645       -0.39211410018345        0.20566240801519
H           -9.01513812334392        0.83252299424420        0.61636110719343
C           -8.78760399110611       -1.34799592529587        0.02678082108792
H           -8.70094967931550       -1.87825018143760       -0.93027237538303
C           -8.83922668910128       -2.38276926214300        1.15783466921670
C          -10.10747050320141       -0.56632217019933        0.04320385381129
H           -8.88372075807464       -1.87808267306898        2.12119380983320
H           -9.72504715954489       -3.00009351547255        1.03766023425941
H           -7.95349286525467       -3.01183205178977        1.12605964280173
O           -9.97793055782445        0.68594097071797        0.46631207832425
O          -11.15965368551327       -1.04958409289610       -0.27245922730961
