42
 energy: -62.486133509163 gnorm: 0.000480217989 xtb: 6.7.1 (edcfbbe)
N           -1.56469842441249       -1.79938844870352        0.28538100967293
H           -1.00423474781539       -1.14568928840115        0.82203197216961
H           -0.93527403952366       -2.45941768786591       -0.15540724227850
H           -3.24682408541994       -1.82190200744002        1.27162511806671
C           -2.35719610988396       -1.09354897286082       -0.72200374677314
H           -1.81762758279753       -0.27863762278573       -1.22308303863419
C           -2.86182508241755       -2.08063015102246       -1.77505261341748
C           -3.56625635409668       -0.50755872701243       -0.02240165881355
H           -3.37866498774622       -2.90725583478701       -1.29314867738954
H           -3.55547817544676       -1.57308306710795       -2.43744567063932
H           -2.03086889909108       -2.47454505977385       -2.35642565310676
O           -3.93149016001250       -1.14119237771576        1.10946361487754
N           -4.16782336990737        0.47100713981223       -0.53098129547427
H           -7.05988328356530        0.54373359933345        1.80493350574640
C           -5.37141819181029        0.96491575672137        0.10006468640903
H           -5.16414713353777        1.21822752925279        1.15199049828074
C           -5.81419485955002        2.21096811832775       -0.68346493674539
C           -6.45754618139093       -0.08420873935895        0.05929052900423
H           -4.96930182201896        2.90075571858362       -0.70508318586934
H           -5.99973334928808        1.88041137840614       -1.70575582401318
C           -7.05313609450759        2.92747826819762       -0.13779089037559
O           -7.33836541386257       -0.08351781037004        1.12708023905435
H           -7.86192970166302        2.20082316505182       -0.00178559685503
C           -6.77015805411380        3.61700145516507        1.19683542520755
C           -7.52787744738698        3.96153014725458       -1.15735414177335
H           -5.98986710027483        4.36455654380037        1.07243115543352
H           -7.66529455706874        4.11558568250122        1.56172339760858
H           -6.44320285469801        2.91443580022732        1.96085812410517
H           -7.78580770534024        3.47961980075126       -2.09680002026699
H           -8.40664693073504        4.48550191896050       -0.78855305485313
H           -6.74543435742639        4.69271346407484       -1.34824760099713
N           -6.52746591441616       -0.86429050047850       -0.91273515158256
H           -8.83113842892220       -0.40833963227643        0.16871462017834
C           -7.47046468085538       -1.93357083391854       -1.11047386392757
H           -7.10929491372231       -2.47706441339760       -1.99157654836333
C           -7.57444671631042       -2.90615823706992        0.07261072311251
C           -8.87892839166264       -1.42810878352838       -1.45838301637935
H           -7.99781686876750       -2.42282795997026        0.95033781464071
H           -8.20210428448100       -3.74942085868203       -0.20444010295248
H           -6.58111604108929       -3.26962436233811        0.32619950266661
O           -9.42765865801013       -0.58631183599904       -0.58304363084653
O           -9.46354929282985       -1.78499844907440       -2.44119967397748
