42
 energy: -62.486133505984 gnorm: 0.000480878949 xtb: 6.7.1 (edcfbbe)
N           -1.56499132621064       -1.81984082057634        0.46437826802301
H           -0.61015577350440       -2.06034106515385        0.22661618420568
H           -2.09827837842868       -2.68559593995059        0.49366931519183
H           -2.59223130470946       -0.77550021619421        1.72396737819575
C           -2.14111114137305       -0.92307078820855       -0.53908198375662
H           -1.41053274549000       -0.12319464270148       -0.71816534840347
C           -2.49863357374899       -1.58857463626171       -1.86590577244532
C           -3.36299756347905       -0.27086111848987        0.08603669859003
H           -3.19406768738928       -2.40750692750397       -1.69531050262712
H           -2.98568881926901       -0.86322161356899       -2.50803163659915
H           -1.60575280679828       -1.97253714184008       -2.35553343971237
O           -3.38812964673818       -0.28424334211353        1.43779212018698
N           -4.24491091147865        0.24047930303467       -0.64607936510240
H           -6.65011302697521        0.53416799343197        2.00447772706264
C           -5.39121325836196        0.89098289157881       -0.05425235200485
H           -5.12237057931537        1.36084489323772        0.90538727123701
C           -5.89345019979175        1.94247164815678       -1.05491165462351
C           -6.47656076074186       -0.13373822926238        0.18019639758164
H           -5.07716696803485        2.63879436729875       -1.25413949072745
H           -6.11168576641641        1.40272750585239       -1.97629984053424
C           -7.13520518730960        2.71429707109018       -0.59802915353964
O           -7.09533393128988       -0.08929358516273        1.41757313800817
H           -7.89954502657596        2.00007264097712       -0.27149368850939
C           -6.82106378527090        3.66681002197700        0.55501174417701
C           -7.70468145185940        3.50170375215790       -1.77629075423729
H           -6.07035560628956        4.39224884855325        0.24819143873731
H           -7.71709911476982        4.20710669087322        0.85232937244124
H           -6.44455267332762        3.13800569055359        1.42799512196630
H           -7.98897241382032        2.82904500875209       -2.58130421380306
H           -8.58550871993250        4.06172008856719       -1.47079355499100
H           -6.96504837729605        4.20306358355846       -2.15666393388290
N           -6.76414370524177       -0.94624619680975       -0.72295552886696
H           -8.77770846686747       -0.37363652243689        0.78846838040985
C           -7.75103234003802       -1.99218249439389       -0.67569954462483
H           -7.59117160345657       -2.58131702478769       -1.58615263067306
C           -7.64868139216539       -2.91712333576724        0.54542781076759
C           -9.18440177209121       -1.44373216329638       -0.75606903108982
H           -7.86708131514810       -2.38644767028851        1.46957035180515
H           -8.35140613141773       -3.73945111661289        0.43577206004650
H           -6.64003888025208       -3.31965263846652        0.60875636502965
O           -9.51591837650743       -0.54982276543137        0.17566857106063
O           -9.96719875018029       -1.80943565895203       -1.58518709977679
