42
 energy: -62.486133512676 gnorm: 0.000479664376 xtb: 6.7.1 (edcfbbe)
N           -2.07042141337447       -2.33315450334722       -1.10050386445112
H           -1.09131813661104       -2.58530880715457       -1.16663126539533
H           -2.43911815939844       -2.28218865248642       -2.04663014498131
H           -3.69048062672537       -2.78638823450641       -0.19399005754783
C           -2.23390536806188       -1.03901475463311       -0.44063728972933
H           -1.65263038618861       -1.07385230186487        0.48998580791294
C           -1.78129312973965        0.15826993737105       -1.27327313232553
C           -3.70927164938358       -0.92056142078421       -0.04573388204181
H           -2.34657715180699        0.20035253881955       -2.20190505371225
H           -1.96594176808552        1.07097139208761       -0.71837230709049
H           -0.72040402884050        0.08362594301793       -1.50521710740240
O           -4.31569622123523       -2.10141947324881        0.12165051381977
N           -4.15255424735124        0.22983903549700        0.18136586775001
H           -7.49563896921322        0.93067944250339        1.74468102862962
C           -5.47900468326556        0.70822654961671        0.42877052026556
H           -5.43238214226514        1.19715487570191        1.41362583908694
C           -5.72353030022129        1.78523115082863       -0.65873385356653
C           -6.65133532777761       -0.24584700240600        0.42272696747228
H           -4.82234303094914        2.39827211252963       -0.70567532500208
H           -5.81677219741889        1.25443372569436       -1.60788831169557
C           -6.94480654496139        2.68870589570877       -0.46047537355231
O           -7.70156595583998        0.12158789370485        1.26167054680614
H           -7.83945363835243        2.07285186949573       -0.31828765389554
C           -6.77663775158720        3.62170393520258        0.73852576912681
C           -7.16018980391695        3.51970260560870       -1.72500495657472
H           -5.92448473378919        4.27935763609697        0.58138125867511
H           -7.66453946784284        4.23739577652228        0.86474090851247
H           -6.61093881710829        3.07823139771182        1.66700035647680
H           -7.33759262541421        2.87402462817417       -2.58134400297038
H           -8.01993851928554        4.17513295992415       -1.60756737307463
H           -6.28522121968662        4.13269152708644       -1.93018658691882
N           -6.64891130052030       -1.27723232872917       -0.27508413740085
H           -9.03072632147888       -0.37207759985501        0.15460490917969
C           -7.66865256871536       -2.28553882928280       -0.37111714836762
H           -7.22616904620617       -3.08530857028897       -0.97615657799825
C           -8.10734809600708       -2.86608047080557        0.97998957804800
C           -8.90937009042509       -1.79363629682741       -1.13030793386048
H           -8.60692943313778       -2.11919392552826        1.59307834113363
H           -8.78548214630468       -3.69936965998456        0.81441640574679
H           -7.22878622826582       -3.22133208131830        1.51329802490738
O           -9.49763465667521       -0.70377772436843       -0.63667275817958
O           -9.34019337935242       -2.35918617148228       -2.09518171327901
