42
 energy: -62.486133508143 gnorm: 0.000480608203 xtb: 6.7.1 (edcfbbe)
N           -1.57862907831800       -0.30846103141192        0.65629123788261
H           -0.85296426041087       -0.88523910213283        1.06917625322510
H           -2.21369312313007       -0.02129335054086        1.39381251682276
H           -3.00964868478276       -0.29328601917566       -2.55343240722290
C           -2.32233803331055       -1.06924556884807       -0.33201644002774
H           -1.67521451334236       -1.17355812206803       -1.21671282812896
C           -2.75321118782615       -2.46840590715254        0.13946376612209
C           -3.56304592381189       -0.28292180033209       -0.69563360492987
H           -3.40497178528749       -2.37033699619433        1.00396699166506
H           -3.29356341079107       -2.99202019751000       -0.64592677275050
H           -1.87845380350390       -3.05588263419515        0.41119688141469
O           -3.76760742287484       -0.01770611154517       -2.02286564152640
N           -4.34507127044020        0.03626559831773        0.22893187940362
H           -5.81624921221302        0.04930738060270       -2.23013613253705
C           -5.57328250581192        0.78785079546380        0.07605409082147
H           -5.88232632793885        1.00769659186440        1.10329515812926
C           -5.43664842587513        2.10053670619808       -0.70612016623849
C           -6.61686215010341       -0.14266381918785       -0.50446140402030
H           -4.71922333208177        2.72867730767802       -0.17298963364359
H           -5.02034931173492        1.90987192335896       -1.69798807889803
C           -6.76338938924423        2.85403487651599       -0.86209655793778
O           -6.58434199439569       -0.38275682881159       -1.82725058869695
H           -7.48339880734634        2.20295956284540       -1.37134771694126
C           -7.35323250379264        3.25877555167667        0.48657520192640
C           -6.53689499531820        4.09217203397827       -1.72884567156438
H           -6.62495306119716        3.82194269398890        1.06628705125635
H           -8.22911788778463        3.88545029787969        0.33619896484173
H           -7.65896815189176        2.38717210685693        1.05880562300239
H           -6.13625093794428        3.81842307010058       -2.70274648872739
H           -7.47205387950834        4.62462464193128       -1.88316861374384
H           -5.83365291722690        4.76725690049799       -1.24575587178314
N           -7.41885646811362       -0.71088448694270        0.28351452875963
H           -8.21243472103564       -0.82839923959501        1.91301196977626
C           -8.39933341099262       -1.66534808965319       -0.18533316900259
H           -8.91872260750510       -1.30749255313168       -1.08319295332384
C           -7.76524018746550       -3.02700145036381       -0.49108870593670
C           -9.42897675996131       -1.85106956542419        0.93923339075927
H           -7.19832078120620       -3.37291813776498        0.37104233163422
H           -8.54922543529345       -3.74483321374750       -0.71497633081966
H           -7.09761703850864       -2.94218352225863       -1.34481363173085
O           -9.07105379064745       -1.28148766115277        2.08352647524322
O          -10.44680176917645       -2.46964828121314        0.79745026569477
