42
 energy: -62.486133511397 gnorm: 0.000479673297 xtb: 6.7.1 (edcfbbe)
N           -2.20439872474123       -0.40810625432283       -1.69466791607215
H           -2.26791704643057        0.57460649795879       -1.94132139966978
H           -2.10168493426280       -0.93735586148932       -2.55369574973201
H           -1.50267747939649       -0.53266925409123        0.18290304695217
C           -3.40560960177066       -0.84198400623270       -0.97369264199766
H           -4.34416152899634       -0.57070511586963       -1.47102583142560
C           -3.34013648082195       -2.36042517633514       -0.80144436101068
C           -3.32801197856590       -0.19088954072272        0.40705571331885
H           -2.37704487540423       -2.64884982158075       -0.38506366760957
H           -4.12837224594564       -2.68384401248329       -0.13129826500543
H           -3.46773857190834       -2.85119107348621       -1.76366415742188
O           -2.08610342569468       -0.24408974734509        0.91102752976701
N           -4.18108941931766        0.40375505549766        1.11330752215125
H           -7.93123985744654        0.74365272716123        1.18216884537176
C           -5.55661326725714        0.72138968922908        0.90618966559240
H           -5.92200494888756        0.99344457866858        1.90802633800822
C           -5.58718270754524        1.98224884233236       -0.00525189269195
C           -6.51156599400648       -0.31498539542468        0.35825927670505
H           -4.77867605122683        2.62683517734360        0.34673376880222
H           -5.33320778992149        1.65579331073462       -1.01662562740994
C           -6.87899229035963        2.80603696407512       -0.05804289178106
O           -7.84273247937201       -0.03913308570395        0.62457339739381
H           -7.70818846730053        2.18052988643885       -0.40676261532081
C           -7.22935362547553        3.41541357495062        1.29934171526410
C           -6.70211501397947        3.92634541944349       -1.08422016935882
H           -6.42339355239317        4.06510767113406        1.63280076270508
H           -8.13714438805065        4.00970679870139        1.22091532003914
H           -7.38784721307092        2.66286065351236        2.07005048772759
H           -6.49015790150509        3.51644068338665       -2.06880098835753
H           -7.60779976102090        4.52425214257974       -1.15208564772754
H           -5.88024147099005        4.57859596643690       -0.79771153474569
N           -6.13219205802158       -1.34854712779808       -0.23093627498366
H           -8.51310117146633       -0.56078078965673       -0.99044572415418
C           -6.96667905829269       -2.39270104063276       -0.77497444814343
H           -6.27513525070400       -3.18667035987349       -1.07931242471044
C           -7.99764085485257       -2.97804604989248        0.19744916177310
C           -7.66732602283923       -1.91573750977939       -2.05650493487533
H           -8.76291977184214       -2.25333547101515        0.46568515979536
H           -8.47434794702829       -3.84035522768704       -0.26208087958555
H           -7.49196398116255       -3.29705162486533        1.10627015846785
O           -8.49154087560577       -0.87853478889975       -1.91304933440352
O           -7.48975177752192       -2.43890998542290       -3.11930531930829
