42
 energy: -62.486124274747 gnorm: 0.000973491063 xtb: 6.7.1 (edcfbbe)
N           -1.72757984313939       -0.40624284225951        0.74885407776953
H           -1.06405762390040       -1.02378737307704        1.20442525209192
H           -2.38173577120641       -0.06565754032916        1.44564583321461
H           -3.32427428744918       -0.67333680071883       -2.51278222531571
C           -2.46479564809436       -1.12348144233671       -0.27192835907357
H           -1.80478000934936       -1.21946437067072       -1.14871141638540
C           -2.93561480947131       -2.52732973806641        0.15378295055007
C           -3.69342227070957       -0.32606611155781       -0.64479040282501
H           -3.58529568738910       -2.44019245539267        1.02150495337139
H           -3.48911651554452       -3.01277216184473       -0.64735628666086
H           -2.07790750925039       -3.14677268831382        0.40804923534582
O           -3.99979224312685       -0.24473248673214       -1.97295093280977
N           -4.38502430678438        0.16452571565116        0.27813072267108
H           -6.09873621363765        0.32615934282074       -2.26848001836353
C           -5.61928968854871        0.89931500015519        0.07979541671583
H           -5.94077554578059        1.15869305618405        1.09400773691043
C           -5.43882124789620        2.18171326471497       -0.74126174156688
C           -6.65902249888959       -0.05077129474677       -0.47992609637944
H           -4.71435205946071        2.80593356579150       -0.21308327249408
H           -5.00060115316393        1.94568074133101       -1.71520324614898
C           -6.73815754715298        2.97173635182562       -0.94538224901989
O           -6.79044305032534       -0.17266393540535       -1.81203470846651
H           -7.47637306144169        2.33101018862252       -1.44095442704859
C           -7.32984154273796        3.44277217262744        0.38109370615852
C           -6.45998106050169        4.17138401009881       -1.85045139816172
H           -6.59180008713954        4.00533519548803        0.94874019708160
H           -8.18552332515328        4.08842549366071        0.19781184121166
H           -7.66682875423886        2.60236525349601        0.98201164063997
H           -6.05667816812614        3.85264734633054       -2.80953532350473
H           -7.37546001688906        4.72803366187358       -2.03478011848976
H           -5.74119162504055        4.83962105318915       -1.38111891280670
N           -7.30871144166164       -0.75271032307840        0.34116346163504
H           -7.89702385328427       -1.04098510254305        2.02899683250523
C           -8.26346383072522       -1.74822639014248       -0.09205269312036
H           -8.91382157611477       -1.36983932991354       -0.89070842199095
C           -7.56896876525948       -3.02359077433058       -0.58270990221936
C           -9.13201905533999       -2.10396193932644        1.12438414910237
H           -6.87518823415975       -3.38164027466651        0.17562483048998
H           -8.31703461813491       -3.78819682461787       -0.77202891311836
H           -7.02069835058542       -2.81898188093993       -1.49901094454635
O           -8.68944204264525       -1.58082632697315        2.26083051270240
O          -10.10254631611728       -2.80514666954190        1.05132394301545
