42
 energy: -62.486133515857 gnorm: 0.000479591596 xtb: 6.7.1 (edcfbbe)
N           -1.74925831225093       -1.99844659745025        0.44204571738455
H           -1.28024588563999       -1.50279278858165        1.19355225472989
H           -1.06823227150543       -2.59887110198079       -0.00712061349768
H           -3.59596679378397       -2.11494937775550        1.06825568442524
C           -2.31934282506668       -1.05568818010047       -0.52065059041022
H           -1.66740208893306       -0.20239483525247       -0.75122516835897
C           -2.66794446382903       -1.78648729622214       -1.81802313561300
C           -3.61181824400646       -0.52853466138279        0.06979331203898
H           -3.31751430466986       -2.63301356708462       -1.60710260780941
H           -3.18631657263679       -1.10613285159826       -2.48624357182631
H           -1.76482378221240       -2.14808276057428       -2.30528066936003
O           -4.20555025059311       -1.35786017963421        0.95198139103768
N           -4.04748713789905        0.59125700195129       -0.29293775362060
H           -6.52347385075272        0.29733449111921        2.16328081479513
C           -5.33396455108982        1.08075575883298        0.15442636747314
H           -5.19647767088770        1.54018111218191        1.14496213742364
C           -5.79080421777328        2.14307622576686       -0.85451070175982
C           -6.36940950451378       -0.01793013163114        0.24711167717331
H           -4.99621387867144        2.88511319898356       -0.93950909453361
H           -5.88866900020215        1.63547739569095       -1.81404779897292
C           -7.11558860639968        2.82566211991902       -0.50205218364009
O           -6.98097786369381       -0.19572907674065        1.47242885025406
H           -7.87471042874817        2.05496455414297       -0.32645738512181
C           -6.99831464392956        3.69745560527093        0.74721843778198
C           -7.57238840236054        3.67845286571253       -1.68399699481617
H           -6.22753701223316        4.45294217521064        0.60868236522576
H           -7.94188722405817        4.20229944734590        0.94178313256234
H           -6.74834273234350        3.11068568644409        1.62827418756429
H           -7.70142570208398        3.06259570722990       -2.57015157386335
H           -8.52070529803178        4.16215475856900       -1.46219853282005
H           -6.83527157754115        4.44835576041218       -1.90234017240656
N           -6.63319830650972       -0.68127027252604       -0.77916689875553
H           -8.64394887651569       -0.47105666791479        0.82044199567109
C           -7.56128280735456       -1.77509009156407       -0.89631436438602
H           -7.38805238997299       -2.19467994153760       -1.89443962878354
C           -7.37893350559059       -2.88108259650607        0.15238295849871
C           -9.02437165260661       -1.30890608371109       -0.86723093746204
H           -7.61152273556639       -2.52409694665645        1.15308346727417
H           -8.03083206660075       -3.71772516657326       -0.08655554813691
H           -6.34545002749971       -3.21897500852656        0.14094652142601
O           -9.38562577142697       -0.59416118082841        0.19845369600012
O           -9.80490801871126       -1.58683232867342       -1.73261373888319
