42
 energy: -62.486133502755 gnorm: 0.000480232000 xtb: 6.7.1 (edcfbbe)
N           -1.27695083658384       -0.67718602861685        0.30483868575444
H           -0.54040445998309       -1.34041670494941        0.09640839238585
H           -1.27413289754498       -0.52439709091177        1.31015001111084
H           -1.95888841226082        1.00040843966373       -0.30338553806273
C           -2.58008101884465       -1.19734756245088       -0.10897027565885
H           -2.46699234364793       -1.57713949380840       -1.13287785470838
C           -3.14057396141096       -2.30443064025598        0.77935933016962
C           -3.53632662531597       -0.00996302463433       -0.19001170442600
H           -3.21952068628528       -1.95616501210169        1.80655605894240
H           -4.13364197715783       -2.56959829412740        0.43492094898136
H           -2.49722400781616       -3.18141700036947        0.74926531731731
O           -2.92050320781745        1.17897027872796       -0.35565628451669
N           -4.76548837397065       -0.23317362957944       -0.10715441496701
H           -7.13623022040556        0.73684978839166       -2.31410078302081
C           -5.84465523909433        0.72364355153215       -0.18289195257391
H           -6.03959816692193        1.04635851255607        0.84824536895451
C           -5.61633118489467        1.95970749811107       -1.06226446164183
C           -7.04114331823582       -0.12283755582410       -0.60067665039716
H           -4.69118549328357        2.43681868490509       -0.73976023282351
H           -5.45186239192481        1.64508899753311       -2.09976415075664
C           -6.75310817815139        2.99089373173332       -0.97891179424696
O           -7.57627234718181        0.02810277018448       -1.82750507385829
H           -7.72430849646470        2.48215208944493       -0.99997640249708
C           -6.67001455274300        3.78548862801878        0.32289408401198
C           -6.67764645431959        3.94247494629607       -2.17273858011236
H           -5.72475595582902        4.32126976171178        0.37944386541214
H           -7.47913184865677        4.51034306907800        0.37488465496041
H           -6.74788142644638        3.13127335775421        1.18761231864857
H           -6.79005150410172        3.40704766097675       -3.11409474710134
H           -7.46501303532403        4.69011995017991       -2.11372376115096
H           -5.71844599120857        4.45577202851215       -2.18413586985912
N           -7.44395986865344       -0.99179420297511        0.21493662552916
H           -7.32608936169898       -1.75464559983940        1.82934211699473
C           -8.51328775433848       -1.91575550424624       -0.08084233767518
H           -9.40617939567285       -1.39825061671778       -0.45353198023053
C           -8.09813974427216       -2.98208531049577       -1.10097923012049
C           -8.86115755401507       -2.62429413176132        1.23882208707446
H           -7.18146015206515       -3.46838777137546       -0.77354897067376
H           -8.88723467427623       -3.72435335192957       -1.18330856975282
H           -7.92873667014789       -2.52350537199190       -2.07141647864314
O           -7.98299585675014       -2.39148061323387        2.20520255595051
O           -9.81858561449637       -3.33618507115422        1.36828084280855
