42
 energy: -62.486133519751 gnorm: 0.000479308911 xtb: 6.7.1 (edcfbbe)
N           -1.09019362964973       -1.15828245601123       -0.73075786982584
H           -0.80493831724472       -1.77871466216260       -1.47815249062519
H           -0.71738275190143       -1.53246609758219        0.13712751360753
H           -1.03274632729708        0.57823341621679       -0.14292450916590
C           -2.54866448943579       -1.05444967220137       -0.64389056979831
H           -2.93584762089888       -1.10678642225395       -1.66877046779822
C           -3.16089972550398       -2.16874954638762        0.21007715033046
C           -2.89108261439656        0.33749307505135       -0.03168455646903
H           -2.76270649731247       -2.11493090908797        1.22244919680967
H           -4.24046175765920       -2.08164200579037        0.26997395697061
H           -2.91863276004655       -3.14302841132125       -0.21232826178357
O           -1.80113801652790        1.08480550910809        0.19809252817337
N           -3.97755239017728        0.76361081966557        0.40365805471285
H           -4.80802615396765       -0.52476734031933       -1.66202609121314
C           -5.37521805314812        0.84482868339110        0.24598347780871
H           -5.77489800764116        1.04108960949612        1.24619635492014
C           -5.66599988033156        2.07528030808075       -0.64958613136279
C           -6.14176295650344       -0.33801472473757       -0.31561123099967
H           -5.04167524012145        2.88829535585276       -0.27723615486702
H           -5.33731388724510        1.84805874890518       -1.66840571905611
C           -7.13081453702186        2.52166546962737       -0.68108300633385
O           -5.61543908493868       -0.97657004565774       -1.38655718518233
H           -7.75686625838228        1.67231211738536       -0.97251268008602
C           -7.60075284041931        3.02763788628269        0.67969294624557
C           -7.29583152979962        3.62244595125233       -1.72860418851207
H           -6.98615201446470        3.86437907861194        1.00451431109246
H           -8.63302356873620        3.36239716094729        0.61539323708611
H           -7.54844776807897        2.24602192809398        1.43222988000094
H           -6.99954878779743        3.27041401594648       -2.71431307959344
H           -8.33368046356258        3.94153738903323       -1.77933164137346
H           -6.68320724123317        4.48424011361346       -1.47269304162904
N           -7.30623171589734       -0.56331168544435        0.10819130103582
H           -8.80816807463860        0.06522637371684        0.95711558901545
C           -8.14811632990405       -1.57826501985481       -0.48265547245183
H           -8.04449271831930       -1.61278595249002       -1.57551317899538
C           -7.83584269876529       -2.96645967430881        0.08616613764655
C           -9.60271077727443       -1.22574361160108       -0.13743254645372
H           -7.87387567737250       -2.93924534278007        1.17333349863147
H           -8.57169778535915       -3.67701810758849       -0.27943959647151
H           -6.84330300007271       -3.28230373550283       -0.22675793539675
O           -9.71907228273614       -0.24205730731176        0.74643702143028
O          -10.54168147656466       -1.79841128709667       -0.61527773235583
