42
 energy: -62.486133514999 gnorm: 0.000479183041 xtb: 6.7.1 (edcfbbe)
N           -1.00901867180933       -0.63746998171329       -0.69922654265957
H           -0.31421341894297       -1.34389434965512       -0.90815752872047
H           -0.66086942445608       -0.08842975508527        0.08224508705464
H           -2.06231932861030        0.65817612832989       -1.58872410369501
C           -2.28849082139683       -1.24976905203343       -0.34130330260275
H           -2.48868837318167       -2.04125736222004       -1.07499421970239
C           -2.34101567951684       -1.84196045185050        1.06399920024522
C           -3.36857226011395       -0.18780329006632       -0.54009578019255
H           -2.10793768517928       -1.07613357760554        1.80115952577315
H           -3.34170370769420       -2.21091778991714        1.26050540802128
H           -1.62706805206628       -2.65738562724839        1.16124177867486
O           -3.00856678223225        0.80614554110726       -1.37930663111743
N           -4.47134777657064       -0.34689516532795        0.03315548381294
H           -5.79855133965473       -0.16934000648470       -2.30800244307996
C           -5.62796237368851        0.51524573134836       -0.01018424648679
H           -5.90558161529343        0.65592146136133        1.04015642490708
C           -5.50653992790394        1.88291634125806       -0.69774249410724
C           -6.72127889330244       -0.32184274591953       -0.64179900773054
H           -4.74656438735687        2.46368178258359       -0.17159607800153
H           -5.15783361360866        1.75968043900553       -1.72624027713948
C           -6.82685764175154        2.66399482668088       -0.71684087679448
O           -6.59338155488097       -0.59150519833780       -1.95639743575614
H           -7.58575800035281        2.06141388565801       -1.22963704279182
C           -7.33233055875341        2.97349781058335        0.69003931673984
C           -6.63078748530526        3.96178995965125       -1.49978677139415
H           -6.56283178322318        3.48156919957734        1.26772276687372
H           -8.20384336588973        3.62175733251028        0.63702759653611
H           -7.62234166344887        2.06550627259145        1.21141674301515
H           -6.29030850512991        3.75793547585656       -2.51280411406100
H           -7.56457490691598        4.51550152279514       -1.55899688404439
H           -5.89004314085216        4.58980943821060       -1.00921648472454
N           -7.66182658850500       -0.76041672708642        0.06867740667066
H           -8.64924700782453       -0.69688023963622        1.59568767349136
C           -8.71089584416677       -1.58795001672045       -0.48523359960305
H           -9.04353725113811       -1.22779978809872       -1.46686588581711
C           -8.26032404972420       -3.04682977306318       -0.61990237944574
C           -9.89419284494848       -1.53653230076598        0.49182180622233
H           -7.88929842510220       -3.40967431901621        0.33638830891680
H           -9.10422009514539       -3.65602185466642       -0.93128317545555
H           -7.46626005602479       -3.12134526073778       -1.35850170104521
O           -9.58847579361078       -0.98751458516565        1.66158454499183
O          -10.98073055646666       -1.97099971773968        0.22894498756557
