42
 energy: -62.486132284426 gnorm: 0.000623460850 xtb: 6.7.1 (edcfbbe)
N           -0.73359393395305       -0.13087798410496        0.05573253017251
H            0.15230212196539       -0.33135828192736       -0.39210645394669
H           -0.73972982543305       -0.61063360774408        0.95131449739695
H           -1.88309243394830        1.40089091168141        0.39757083645436
C           -1.85246359806462       -0.59317399141180       -0.76285684156381
H           -1.67870380177522       -0.22530939624087       -1.78264096696365
C           -2.03251958868785       -2.10944679368616       -0.80187717141066
C           -3.09487201867323        0.12399494566782       -0.25184457130336
H           -2.28475046928174       -2.48568574801049        0.18676201995772
H           -2.83094035400367       -2.37186959595365       -1.48768060045165
H           -1.11334216027431       -2.58613655964514       -1.13729515845995
O           -2.85489522119805        1.30503347182342        0.33358371821818
N           -4.22417135403194       -0.40978052907227       -0.39540701470188
H           -5.11474481144978       -1.92381858030738       -0.72370991058476
C           -5.47319422415095        0.21715796640422       -0.00703852145520
H           -5.47545262822962        0.43453184074162        1.06768190525630
C           -5.65707863642921        1.53262270832278       -0.79085112620886
C           -6.54935841341706       -0.81834488567086       -0.30577019476421
H           -4.83033339139236        2.18558906954048       -0.50476639854129
H           -5.54813466674041        1.29868673067207       -1.85331788115958
C           -6.96884442902921        2.29275186862955       -0.58496413204450
O           -6.09162695994948       -2.02169010137319       -0.66932875694146
H           -7.78156621566125        1.70541597733832       -1.01633310147787
C           -7.26211877826956        2.54222684017730        0.89125413366749
C           -6.89239314291381        3.62248129648727       -1.33519911766943
H           -6.43532860838316        3.07477637404533        1.35759106263439
H           -8.16048881349569        3.14570049710178        0.99655979410067
H           -7.41669489460189        1.60512139895285        1.41911243955448
H           -6.67619075853699        3.46006997299920       -2.38858503929137
H           -7.83897294505795        4.15157873339776       -1.25904300374519
H           -6.11104314073890        4.25420854990110       -0.91711547669243
N           -7.77462883464843       -0.52138558226216       -0.24543413928190
H           -9.17617549118947        0.62534570221823        0.14265282604484
C           -8.78956351272365       -1.50730442131032       -0.55314702538507
H           -8.58807953332776       -2.00780797239160       -1.50847513412999
C           -8.91631579608202       -2.57430127945264        0.54191248315962
C          -10.13253029604923       -0.77302350251354       -0.64448612618095
H           -9.08892017615958       -2.09977381684722        1.50616523244895
H           -9.75391701948131       -3.22661150758671        0.31153149119213
H           -8.00372992032866       -3.16210697776611        0.59255574757340
O          -10.10704113045374        0.44803127131642       -0.12233875465679
O          -11.12095145413189       -1.26780089248743       -1.11143309568256
