42
 energy: -62.486133510086 gnorm: 0.000479959674 xtb: 6.7.1 (edcfbbe)
N           -0.75618684134785       -0.03776828780019       -0.09883917055602
H            0.10914917642936       -0.16398383647189       -0.60926224939675
H           -0.66804466918337       -0.53812546658938        0.78143277652925
H           -1.96818055652719        1.38201314877542        0.40800332917611
C           -1.89377519399012       -0.55646159739407       -0.85614323833140
H           -1.79504566899694       -0.19040558676036       -1.88623419884796
C           -2.00887824091319       -2.07977721848104       -0.87654812532637
C           -3.14531646090689        0.09561882979504       -0.28509280147291
H           -2.11154584207016       -2.46390382995781        0.13693580466213
H           -2.88244971062183       -2.37072042469514       -1.45034852177863
H           -1.12318827737926       -2.51955862287981       -1.33052986549601
O           -2.93658654921037        1.24393950548793        0.37399342882196
N           -4.26602133419998       -0.44565923144777       -0.47038501248272
H           -5.13106007491460       -2.15250595359509        0.08342657764103
C           -5.49677377229838        0.13895551239667        0.03051076425570
H           -5.39684900041087        0.33500795494578        1.10910943345543
C           -5.86995312842579        1.44618634331946       -0.67982892059000
C           -6.54264402311635       -0.94314231552653       -0.15407142428873
H           -4.96699315773321        2.04957361101587       -0.78579400410970
H           -6.23013604046609        1.19323907629577       -1.67799160538661
C           -6.92974192995364        2.26463540489972        0.06778879079027
O           -6.10390268045582       -2.19305442996802        0.07744777491499
H           -7.69935895328154        1.58037740554372        0.43563890455013
C           -6.31765087506545        3.00265275037690        1.25679474252666
C           -7.57796944772995        3.26782059649911       -0.88462038515733
H           -5.56690112188599        3.71260250528377        0.91577464747938
H           -7.08585376878758        3.54917442215781        1.79896306537078
H           -5.84162476607651        2.31319028903132        1.94954006714553
H           -8.06319223625580        2.76128888845414       -1.71523537889919
H           -8.32686517347988        3.85778595477075       -0.36175831441983
H           -6.82776980927743        3.94650763241762       -1.28566687123809
N           -7.70181707415293       -0.66647013849263       -0.55905492927323
H           -8.81157186516321        0.48012845510469       -1.41183622535392
C           -8.69413054508249       -1.69260509064045       -0.78085011419365
H           -8.26193133843291       -2.58674590172207       -1.24870829155249
C           -9.38101156609478       -2.10326574872496        0.52599625282741
C           -9.75212532435424       -1.09929680742813       -1.72292564772649
H           -9.78096361624395       -1.22443532785422        1.02807627824292
H          -10.19468999906198       -2.78805206683863        0.30459562334868
H           -8.66424620895297       -2.59147103068784        1.18169542364665
O           -9.61535058409087        0.20724309457876       -1.91529770031177
O          -10.62704301146345       -1.75255833270235       -2.21976566635410
