42
 energy: -62.486131725738 gnorm: 0.000430164586 xtb: 6.7.1 (edcfbbe)
N           -0.99458847348592       -0.56278472375568       -0.07037015457015
H           -0.24690764385078       -1.17361480745232       -0.37601662505652
H           -0.89153413393319       -0.43230754687019        0.93243340536438
H           -1.82421728044738        1.08790506463208       -0.53373975496874
C           -2.30208519912139       -1.15123515024187       -0.35878479889275
H           -2.27203415776386       -1.51939414765965       -1.39256210859733
C           -2.70761870469555       -2.29266123534181        0.56987946442313
C           -3.32531935163866       -0.01820540954564       -0.32797990945817
H           -2.70087244302589       -1.95310360875131        1.60355919713244
H           -3.71377565739572       -2.61469219961561        0.32483249099082
H           -2.02166702632391       -3.13113098704826        0.46669192695284
O           -2.79588562539199        1.20862310285449       -0.49803333434688
N           -4.53359542501013       -0.31077095613693       -0.16790853786366
H           -6.19468603838766        0.08288786460250       -2.43526299373402
C           -5.65156899505689        0.60425558737371       -0.12867101809150
H           -5.85240207802411        0.79571540492901        0.93157594699528
C           -5.50490505695331        1.93884106004881       -0.87475847941441
C           -6.81172689981493       -0.22011127005082       -0.65214285030403
H           -4.75197063104092        2.53823278386805       -0.36225599262279
H           -5.12527127623031        1.75684198025240       -1.88623444406207
C           -6.81247042261455        2.73749012789277       -0.95775688796388
O           -6.90345581247038       -0.39355351766561       -1.98542498448371
H           -7.56806472883342        2.14435988755062       -1.48582212212007
C           -7.35582232755596        3.07436084168978        0.42897672926297
C           -6.56805978132763        4.02004142385981       -1.75205751136885
H           -6.59433561781729        3.57272650946533        1.02521896777100
H           -8.21149387431195        3.73993705935058        0.34188076883047
H           -7.67989186128558        2.17759827831800        0.95052378620143
H           -6.19417927093221        3.79634876236022       -2.74913642585385
H           -7.49050413420397        4.58657786862544       -1.85340742396632
H           -5.83601888660152        4.64413083712537       -1.24399681429261
N           -7.58667193369265       -0.77606876413694        0.16851457610058
H           -8.26154655516505       -0.92383893107365        1.84403677928509
C           -8.66428330207096       -1.63967559712007       -0.26123064806390
H           -9.20099965206433       -1.22956423423083       -1.12568600085146
C           -8.15181133057792       -3.04054074935188       -0.61443312467082
C           -9.63950807573828       -1.76743029749760        0.91801437600672
H           -7.58164781385352       -3.44638409565544        0.21867920901187
H           -8.99703735424295       -3.69113355034931       -0.82082146600729
H           -7.51016645180884       -2.98896215698325       -1.49018551080305
O           -9.14927212536525       -1.29625388700737        2.05856412170530
O          -10.72631784010286       -2.26548244414473        0.82023317686042
