42
 energy: -62.486133512445 gnorm: 0.000479344106 xtb: 6.7.1 (edcfbbe)
N           -1.83648663945963       -1.49258702436020       -0.82164466391632
H           -1.64058623160461       -1.07508785771396       -1.72506998606701
H           -1.71224509081468       -2.49451343089994       -0.90510877651717
H           -1.32435371449798       -0.19070910893990        0.41626947856053
C           -3.19142647937813       -1.16924367830432       -0.37126254665034
H           -3.91993227077859       -1.20269067958111       -1.18976022686213
C           -3.61544357447107       -2.15445101268210        0.72051452520031
C           -3.14068256703999        0.22358073587925        0.28782265447515
H           -2.87655691969639       -2.15943068517371        1.51914708131172
H           -4.57519954613430       -1.85932292414948        1.13606438741679
H           -3.70250734411726       -3.16090217672950        0.31444058672900
O           -1.91292472021334        0.53704875427779        0.71516570502373
N           -4.06910707943174        1.00505651621512        0.60933879319576
H           -5.39817327093920        0.28888729778407       -2.08000914610326
C           -5.43479406062925        1.14792842547739        0.21588344170288
H           -5.95758845192869        1.40350386345145        1.14542583547883
C           -5.51346054379923        2.35985117271198       -0.73464908052844
C           -6.17478578901432       -0.04345254345683       -0.35903123076820
H           -5.06673579419412        3.20212929570069       -0.20534214984693
H           -4.88390810583413        2.17578422523170       -1.61313715968580
C           -6.93270235503478        2.72819875354576       -1.18453745994986
O           -5.94134649874415       -0.38559268228817       -1.65081848675453
H           -7.38083847338060        1.87923473751495       -1.71444610289406
C           -7.82870154274009        3.07438837694138        0.00185851371432
C           -6.85879579366561        3.91041922460812       -2.15055365041921
H           -7.36845009389278        3.84797282303787        0.61205082414174
H           -8.78871378582580        3.44211785105135       -0.35259690029222
H           -8.01235381197340        2.20107983666932        0.62182306754240
H           -6.23927888421452        3.67378789969890       -3.01344567125281
H           -7.85196859055157        4.17226661201027       -2.50664470345215
H           -6.43347306020571        4.77783999340743       -1.65109339062543
N           -7.04850540089400       -0.61599911265419        0.34403474217406
H           -8.13799154649049       -0.63026666754437        1.82300112435022
C           -7.86196403014277       -1.69205560460093       -0.17617295655794
H           -8.20852607031486       -1.47542903620583       -1.19523389105602
C           -7.12146705789642       -3.03347999793091       -0.18775983853172
C           -9.08519762168265       -1.82637501511618        0.74358018136216
H           -6.74533295032541       -3.26223132772683        0.80738718914113
H           -7.81005199829667       -3.81565196615283       -0.49461594006323
H           -6.28874917402728       -2.99223023974732       -0.88530128377662
O           -8.98877133447143       -1.12244761488743        1.86497027398651
O          -10.02579107217726       -2.52009940318750        0.47671837472703
