42
 energy: -62.486133507422 gnorm: 0.000480742866 xtb: 6.7.1 (edcfbbe)
N           -0.97794896986754       -0.48344801013443       -1.02041116819902
H           -0.31619341185734       -1.09755719049167       -1.47964869466979
H           -0.62062905371095       -0.29205520506486       -0.08828079320569
H           -2.01724042177223        1.11762901518973       -1.37261400190673
C           -2.29341435819906       -1.11562171111056       -0.92556287802253
H           -2.54586911202692       -1.48565940708665       -1.92810237091486
C           -2.38150379097332       -2.26951888824144        0.06918409630918
C           -3.30631707466108       -0.01885353620280       -0.61474340118586
H           -2.10766072003884       -1.92815532894821        1.06545709559739
H           -3.40237730669806       -2.63356111311759        0.10037886870922
H           -1.71547373177186       -3.07844473670008       -0.22482123482047
O           -2.92511999638890        1.20721470184276       -1.02012407083103
N           -4.37083073225210       -0.33661607384612       -0.03510210593053
H           -6.87926327004357       -0.10936344206911        2.19167440057939
C           -5.47734125210250        0.53252013187785        0.28270837407908
H           -5.31064236841851        0.90766194568184        1.30394438040747
C           -5.72142819548123        1.71432280488605       -0.67009397911306
C           -6.70146420201915       -0.36121018220706        0.26666856759906
H           -4.84674256750376        2.36392037814877       -0.66879341686091
H           -5.83868675902550        1.29134770504973       -1.66870486559642
C           -6.96686456829478        2.53679962081108       -0.31967782376129
O           -7.36355546025262       -0.52810336734014        1.47039305302660
H           -7.81911071678300        1.86040825647691       -0.19017707241902
C           -6.77515412978636        3.34159222199407        0.96490465230795
C           -7.29016123385597        3.48030599421264       -1.47629027403364
H           -5.92809413375348        4.01698195107757        0.86305006275002
H           -7.66291432548147        3.93464394440238        1.17252384832996
H           -6.59714241184749        2.69790108390951        1.82374068556347
H           -7.48672556689217        2.91479554713197       -2.38344034031616
H           -8.17056922420249        4.07629736448937       -1.24759198859776
H           -6.45571867961749        4.15342543150825       -1.66162362381956
N           -7.04528912374882       -0.89700398648484       -0.80714971702897
H           -9.04200504876631       -0.46439225162215        0.77962145719691
C           -8.14877894191218       -1.79574259501675       -1.02221533466854
H           -8.02264466047119       -2.16887225209063       -2.04518626736546
C           -8.19932390178150       -2.98732348593648       -0.05625491434216
C           -9.50221334862135       -1.06949998204163       -0.98627306717385
H           -8.39330281398088       -2.66718890790596        0.96504268408724
H           -8.98427673341418       -3.67230676935158       -0.36713376803292
H           -7.24415600259660       -3.50690614294433       -0.07988439495233
O           -9.76857831524248       -0.39431039263306        0.13230715625331
O          -10.28346461975845       -1.11807892905722       -1.89276274229036
