42
 energy: -62.486132266342 gnorm: 0.000627846457 xtb: 6.7.1 (edcfbbe)
N           -1.48147969977924       -1.54574587890464        0.68628062936713
H           -0.50602056137896       -1.71764050671670        0.47664487162024
H           -1.91589587724358       -2.44556642048195        0.87281186048376
H           -2.56656879822541       -0.42287420260671        1.77999838011814
C           -2.15347628786178       -0.89560184607667       -0.43958125167466
H           -1.48876558511286       -0.10449263971579       -0.80811687989285
C           -2.51552162934902       -1.82728685427722       -1.59379891694541
C           -3.39089156723888       -0.20253422664025        0.10616197361587
H           -3.13114868851853       -2.64874396058253       -1.23193468011639
H           -3.08586750706324       -1.27393863589766       -2.33196766718073
H           -1.61733079684947       -2.23363926586486       -2.05423429552768
O           -3.40435224733550       -0.03569402509101        1.45243823921205
N           -4.30211574167731        0.17170903905015       -0.67181844992248
H           -5.75951632524395       -0.22052276896752        1.94740301865570
C           -5.44380269159081        0.89873359761645       -0.15005744664271
H           -5.18354336199332        1.43466410541222        0.77462966797564
C           -5.91587082508813        1.87601149226831       -1.22829277146020
C           -6.49832393259891       -0.13896486764123        0.15094096602552
H           -5.08477665224609        2.53932619840193       -1.47442929653241
H           -6.15315381382103        1.27847023914700       -2.10713610812658
C           -7.14063550317747        2.70296776117601       -0.82676531328269
O           -6.52350220954343       -0.56784753072983        1.46670610009233
H           -7.93461103891520        2.01705306830127       -0.51416188272478
C           -6.83495236032050        3.66195182860631        0.32267721862318
C           -7.63738721094901        3.48782396000537       -2.03906328704220
H           -5.99774555270260        4.30811871247599        0.06562185719529
H           -7.70000189218860        4.28845141295674        0.52762153212166
H           -6.59004909186134        3.12653790788417        1.23675669665904
H           -7.89091694955099        2.81145361704829       -2.85087279658174
H           -8.52342954854832        4.06406176728700       -1.78361485660577
H           -6.86884502604075        4.17469276414322       -2.38771442085632
N           -7.19566285861392       -0.61701078969780       -0.76754747038342
H           -8.33941430610154       -0.69912259556666        1.54259999087423
C           -8.16944549569871       -1.67099345518518       -0.66406554844062
H           -8.45774231450846       -1.90106048167136       -1.69621680759430
C           -7.65506573092297       -2.95082943294506        0.00995319474312
C           -9.44822447151969       -1.21625875751383        0.05706611896899
H           -7.41304607351438       -2.78117563075959        1.05689676682190
H           -8.41519647986003       -3.72522549458263       -0.05598917699097
H           -6.75815244256444       -3.28976505841783       -0.50394258106125
O           -9.27804411832602       -0.71140188116587        1.27866132131648
O          -10.53569799092757       -1.33011604027831       -0.43161339670234
