42
 energy: -62.486133513872 gnorm: 0.000479304683 xtb: 6.7.1 (edcfbbe)
N           -1.50942525281466       -0.66965786981863       -1.80070256800453
H           -0.89723197630093       -1.37762438252014       -2.18743567337416
H           -0.93488966982333       -0.02927231009026       -1.25932631685771
H           -2.92983213112674        0.48754371445660       -2.34590629715158
C           -2.52700834350828       -1.27209958029320       -0.93980614676287
H           -2.94893386459008       -2.12784403744432       -1.48088442451433
C           -2.01296505286362       -1.74001639494058        0.41907400989753
C           -3.66606432038406       -0.26527211103197       -0.79600446635465
H           -1.56334093469034       -0.90735565955316        0.95674866889129
H           -2.84602112509812       -2.11521254336850        1.00251322304638
H           -1.26980137791672       -2.52573901416564        0.29738628010370
O           -3.70321585616372        0.65848284865480       -1.76991152265608
N           -4.45764827027715       -0.40906186517174        0.16568532823551
H           -7.80033213421765        0.42554470918350        1.54451749052633
C           -5.62497141456148        0.37739592221118        0.45899135842993
H           -5.61546449356567        0.48955922406275        1.55423954278934
C           -5.70336084832953        1.76900112524281       -0.20424012323398
C           -6.83790612962646       -0.44625185876006        0.08835872796060
H           -4.74532708420632        2.26503128036155       -0.03557526706335
H           -5.81353592063407        1.61835826016072       -1.27839431194037
C           -6.82653402081588        2.68847756362893        0.28967650928304
O           -7.97884438864729       -0.20566212307180        0.83702666913296
H           -7.79379087981010        2.18856096826513        0.16707887776892
C           -6.64624891819752        3.09217629581000        1.75344551674916
C           -6.85350913635251        3.94419527975395       -0.58208464221809
H           -5.70362820487327        3.62039397093463        1.88053978623217
H           -7.45173783585706        3.75507536944315        2.06264592473632
H           -6.64185602125342        2.23573899253674        2.42588962662025
H           -7.02474010823310        3.68238579446161       -1.62309445856415
H           -7.64807345809542        4.61441155537426       -0.26176260209470
H           -5.90653462858465        4.47494471130104       -0.51259409445175
N           -6.76473119672641       -1.28201933318455       -0.83577766939953
H           -9.13425397418560       -0.29218130052755       -0.55678978291115
C           -7.80521392179460       -2.15331810934195       -1.31453865545695
H           -7.31256795064537       -2.82839414904551       -2.02388989264223
C           -8.49105809187556       -2.98682728491227       -0.22309556367787
C           -8.88353182791606       -1.39818454261934       -2.10693008487739
H           -9.04602937076211       -2.35882803768446        0.47037102307358
H           -9.17577253804737       -3.69366400716339       -0.68528516833551
H           -7.73671618801689       -3.53638958481665        0.33528782087959
O           -9.48575343417944       -0.40000346365072       -1.46065902248903
O           -9.18778896946063       -1.69842396437731       -3.22585246429514
