42
 energy: -62.486133489799 gnorm: 0.000483724743 xtb: 6.7.1 (edcfbbe)
N           -1.76488005429721       -1.75941658275339        1.13415801094363
H           -0.78900988097107       -2.02816611230791        1.10213846913053
H           -2.31849567232641       -2.61119182217092        1.10167822471169
H           -2.98084165390250       -0.60176028345752        2.12458239044688
C           -2.10957381775737       -0.90056093997949        0.00329450632384
H           -1.35577514750757       -0.10302188073451       -0.03843069461214
C           -2.16471758490321       -1.60988526452185       -1.34854056778542
C           -3.43462826112442       -0.23392925955583        0.34221146103667
H           -2.92100978275517       -2.39206860208109       -1.33182094698257
H           -2.42281869367550       -0.89531497338274       -2.12278522086037
H           -1.19962991155459       -2.05553095051911       -1.58154411278698
O           -3.69839509284569       -0.13497836756396        1.65256469735390
N           -4.17139495124385        0.19473506174124       -0.58373534633660
H           -5.48456342669095       -0.57404024595116       -2.17065319751489
C           -5.45092179963897        0.81549972138578       -0.29002472967492
H           -5.54682604748327        1.09613299054778        0.76333332355061
C           -5.61817338243865        2.04101806846085       -1.19979069398903
C           -6.48722244652688       -0.23563235552404       -0.60912589288011
H           -4.88046255676687        2.78773933340171       -0.89959298209925
H           -5.38182288306328        1.74284293109773       -2.22478025355766
C           -7.02053489865747        2.65724708198460       -1.16357860890484
O           -6.32322307942392       -0.87012220036611       -1.78382180560634
H           -7.75017238094201        1.88362817741303       -1.42738158889079
C           -7.36696270240301        3.19352328823163        0.22263799881512
C           -7.10782517368509        3.77849420488127       -2.19792050422743
H           -6.62694027123472        3.92448329257250        0.54212854628443
H           -8.34061604196495        3.67705506214821        0.20355420693263
H           -7.40421988047387        2.38998857879418        0.95240611311842
H           -6.89294172686964        3.40393241542822       -3.19635353097575
H           -8.10454335069324        4.21246003841916       -2.20359452473894
H           -6.39293281274524        4.56486234881128       -1.96461617661235
N           -7.39794998797137       -0.49871840061176        0.21891425456110
H           -8.39220014682789       -0.01477917911251        1.65323268420964
C           -8.39362973426802       -1.51544330272383       -0.04325551798040
H           -8.77274731395423       -1.45972637142361       -1.07152930582888
C           -7.84293146936486       -2.92405597361121        0.20379079657538
C           -9.55983476475803       -1.27095941374913        0.92628769437169
H           -7.40932444194278       -2.98228858596807        1.20029664131249
H           -8.65282264632102       -3.64375808667932        0.12447075958288
H           -7.07747505940685       -3.15746471501008       -0.53216312055905
O           -9.29796364327363       -0.35268503977385        1.84777239294116
O          -10.59723668278059       -1.87016949923671        0.86452118343113
