42
 energy: -62.486133507886 gnorm: 0.000480377324 xtb: 6.7.1 (edcfbbe)
N           -2.17323703493046       -1.71391254402301        1.37091580203070
H           -1.77277960831025       -0.98807079116954        1.95601608605935
H           -1.47184854335908       -2.43327682954064        1.24059602204618
H           -4.07622331612246       -1.60233085231559        1.79203276769166
C           -2.60150791945357       -1.16577170393076        0.08640378914250
H           -1.89249866515896       -0.45404421440946       -0.35851781556523
C           -2.85513191153482       -2.30829979723362       -0.89911549037457
C           -3.92136499258616       -0.45227439510000        0.32316143884420
H           -3.56949474185814       -3.01289170625387       -0.47834228680382
H           -3.25585211072034       -1.91066792621267       -1.82666646860482
H           -1.92879831574104       -2.83670565808979       -1.11408598008318
O           -4.64033128391637       -0.93818063401483        1.34379410003706
N           -4.23597514044397        0.51298879179211       -0.42014888822332
H           -6.27441776075753        0.30294092475144       -2.48610283337321
C           -5.54008360382339        1.15225262211315       -0.33570098230984
H           -5.70789317266045        1.50129534262083        0.69075729644721
C           -5.56686110049886        2.33246213439059       -1.30924770863415
C           -6.58765494743326        0.09660029679144       -0.60924287481834
H           -4.83634375382816        3.06241424504230       -0.95670851858624
H           -5.21810287487975        1.99884230272686       -2.29168560929906
C           -6.93889786339219        3.00535563954109       -1.44015019087139
O           -6.80886292185187       -0.24558156479405       -1.89765020182566
H           -7.67132761359326        2.26983609011491       -1.79254518848648
C           -7.42543659596328        3.55348498088636       -0.10043082573281
C           -6.85618245867502        4.13111567053523       -2.47021061375168
H           -6.68231880161241        4.22153195166746        0.32971986829074
H           -8.34837190426790        4.11192866066970       -0.23878422335436
H           -7.62153917088689        2.74839504826928        0.60272489493613
H           -6.52513118786122        3.75367831950281       -3.43553978938342
H           -7.82915015726295        4.59794645311463       -2.60246562554183
H           -6.15279891342672        4.89273011163824       -2.14079697005675
N           -7.12796427170979       -0.48277290740371        0.36570831158691
H           -7.08592539648025       -0.84289390278437        2.14809907611071
C           -8.04236939000764       -1.59072651978164        0.23275130414584
H           -8.91060634055643       -1.32539135666830       -0.38219472709554
C           -7.37754229659187       -2.84195844944031       -0.35519132635346
C           -8.51256311576349       -1.94043204479564        1.65373251640500
H           -6.49571794757334       -3.09685459070310        0.22985570550009
H           -8.07952481588607       -3.67042852309079       -0.32044768141725
H           -7.08177152546365       -2.66059012076658       -1.38504134895047
O           -7.75569510937277       -1.40764168293347        2.60315471162401
O           -9.45009264102057       -2.65612669483165        1.87652559423825
