42
 energy: -62.486133513469 gnorm: 0.000479639745 xtb: 6.7.1 (edcfbbe)
N           -2.18194368158620       -2.46009253714733       -0.82203258264823
H           -1.21527812589200       -2.73165316845477       -0.95497911015188
H           -2.66853934615480       -2.61791201414417       -1.70084583753650
H           -3.68816137331014       -2.67245407617568        0.33915887466967
C           -2.28035260150018       -1.04746976602662       -0.45707056469392
H           -1.59332239761827       -0.88120856399710        0.38298322103072
C           -1.94388601425090       -0.07655331542059       -1.58585532423107
C           -3.69875787224203       -0.81963719772256        0.06496692568611
H           -2.60857604702522       -0.24453530617964       -2.43042364118234
H           -2.08533095810729        0.94038606435503       -1.23799388834261
H           -0.91349985968146       -0.20969130032916       -1.91049034256292
O           -4.27590747069623       -1.92236806271381        0.56380836046995
N           -4.13288242119264        0.35717815079248        0.08780299162688
H           -7.45815504619898        0.92622743131802        1.75192574143966
C           -5.45616829194785        0.82355457537669        0.38669735966463
H           -5.40320240240434        1.30415990071839        1.37586220832366
C           -5.75795751116233        1.89780420556967       -0.68497049884396
C           -6.58221730993520       -0.18312238015535        0.39976876222374
H           -4.87988786543451        2.54235424357463       -0.74253814590825
H           -5.84872596854443        1.37259075401493       -1.63719085284292
C           -7.00756876797063        2.75323766104650       -0.45385361075036
O           -7.63389320243629        0.11784388074046        1.25596202343152
H           -7.87421753852148        2.10221915138039       -0.29456695448828
C           -6.84778230307919        3.68432303996392        0.74786773259629
C           -7.28395150454206        3.58275068350713       -1.70739494353839
H           -6.02033822877404        4.37013710553490        0.57967883147980
H           -7.75261382776854        4.27023208384345        0.89421843748172
H           -6.64814260139460        3.14049843957275        1.66946293909563
H           -7.45612162279214        2.93551965872057       -2.56359287120872
H           -8.16505782526737        4.20432719170518       -1.56611559990127
H           -6.43781093158904        4.22960262021523       -1.92848329904676
N           -6.53130804157896       -1.20286081134849       -0.31637956932320
H           -8.95936577189671       -0.44463541720811        0.17387982604616
C           -7.49485621120896       -2.26758165287781       -0.40359219119278
H           -7.02146829569782       -3.03375625989749       -1.02871770014017
C           -7.86463145256196       -2.88629591597723        0.95089180454391
C           -8.77826975196947       -1.84240941781009       -1.13021990538635
H           -8.41339737127776       -2.18393250967140        1.57465424661150
H           -8.47583206545336       -3.77122904255290        0.79212529308110
H           -6.95119937226868       -3.16902409982054        1.46903052291937
O           -9.42170636023006       -0.79676620000544       -0.61094974157670
O           -9.19390567978491       -2.42178377996356       -2.09355410817244
