42
 energy: -62.486133515324 gnorm: 0.000479572205 xtb: 6.7.1 (edcfbbe)
N           -2.14674661199061       -0.65779530874226       -1.50770376588654
H           -2.11256735088353        0.25698556943929       -1.94622427690848
H           -2.08605854133684       -1.35538453185665       -2.24108296746685
H           -1.43496558221457       -0.41017410737287        0.30568968698151
C           -3.38847544734352       -0.81648069331314       -0.74793060121886
H           -4.28992135405934       -0.52273529878747       -1.30002665970969
C           -3.51060209061999       -2.27751056454222       -0.30766408144417
C           -3.23477806145967        0.03130256219064        0.51642497553253
H           -2.60451788821447       -2.58940891487071        0.20844973108302
H           -4.35314726455029       -2.39783415584003        0.36708965837480
H           -3.65699623079369       -2.92114710972989       -1.17299231292523
O           -1.98831102308435        0.00513996379103        0.99838070126091
N           -4.09046012223364        0.68704235102981        1.16736217453717
H           -6.33037483050760       -0.59828760234895        2.41333019705179
C           -5.46192863817518        0.95188006729974        0.81401261895765
H           -5.88778593275253        1.40014036899143        1.72543786648102
C           -5.54477784270997        1.99174931607870       -0.31515016076060
C           -6.29700520036873       -0.27185436017424        0.50058127767195
H           -4.78828820609440        2.75433834878438       -0.12103043918087
H           -5.30407333690003        1.49384674563066       -1.25370792517697
C           -6.92252572865582        2.65256492166728       -0.44094319733817
O           -6.73393621834041       -0.96181469969169        1.61428548841065
H           -7.68908687390457        1.87150718090482       -0.40713620874979
C           -7.17767336167404        3.65145580524189        0.68550813654360
C           -7.02421590995980        3.35987246318437       -1.79096780388231
H           -6.42709023248316        4.43887453653683        0.66814389314973
H           -8.15711692976332        4.10841647656205        0.56611539550701
H           -7.14839372268833        3.17351511088412        1.66135077964460
H           -6.91492192763321        2.64696520273181       -2.60419807039589
H           -7.99091339199522        3.84663461104538       -1.89264127876933
H           -6.24687947426708        4.11576030355026       -1.88293842599982
N           -6.55123329256721       -0.60022455750857       -0.67945025496437
H           -8.47627759845084       -1.15042195207669        0.96831279565579
C           -7.40546186462594       -1.66841389696806       -1.13061748124197
H           -7.25675436799201       -1.72188775057720       -2.21526527755127
C           -7.16507045793944       -3.05609885948926       -0.52127645658963
C           -8.88145006804099       -1.29430653840915       -0.90848187398675
H           -7.24705539872795       -3.03974822920083        0.56301914678407
H           -7.90180655049348       -3.74998192457779       -0.91986969138486
H           -6.17410741695406       -3.41156047507631       -0.79017305538933
O           -9.22873222178917       -1.05792624799978        0.35637108796697
O           -9.67370527854181       -1.23886997835479       -1.80334970658295
