42
 energy: -62.486133512214 gnorm: 0.000480080871 xtb: 6.7.1 (edcfbbe)
N           -1.49730467883892       -2.14322011887310       -0.16962986859192
H           -1.31684396562114       -2.34946169696421        0.80673035448096
H           -0.64728141413680       -2.32464660934801       -0.68933294498690
H           -3.35539770146219       -2.55785465682068       -0.43563453802500
C           -1.93109905086634       -0.75817690030028       -0.34531691130548
H           -1.44081147624807       -0.05025319510496        0.33689030418264
C           -1.68474665432277       -0.31121352052948       -1.78607539623966
C           -3.43172782525386       -0.71562241012004       -0.08460839046050
H           -2.17009762748057       -0.99581930309616       -2.47833698237249
H           -2.09237466515671        0.68457199865374       -1.93011532574005
H           -0.61797381193627       -0.29163474050491       -1.99990472699055
O           -4.05319460088236       -1.89908884501240       -0.23682035336914
N           -3.95806434330945        0.39058927683719        0.18590630709509
H           -5.11473019368849       -1.25389830025566        1.88718200981773
C           -5.36394046975485        0.65447228735344        0.39084044398948
H           -5.41321140492226        1.19442998539706        1.34931089773217
C           -5.81421697291534        1.60169645171681       -0.73221999610026
C           -6.27352162107675       -0.54954875767940        0.52765500937298
H           -4.98524799319402        2.28300533953016       -0.93216584727695
H           -5.98041183358488        0.99991871519539       -1.62635921875628
C           -7.07291011898216        2.41397140356986       -0.40716396309814
O           -5.99529235107042       -1.41494585701164        1.52830138147955
H           -7.80468144293185        1.74977680803374        0.06079555914589
C           -6.76110108375139        3.55916513215275        0.55406800551374
C           -7.67370963540783        2.97117948139802       -1.69658926332376
H           -6.05294946405280        4.25054985211674        0.10193823343823
H           -7.66879088794979        4.10796083373717        0.79433471935727
H           -6.33390035375685        3.19238815392803        1.48401340424347
H           -7.95940463418743        2.16915812921805       -2.37264539597482
H           -8.55932739575171        3.56295368624903       -1.47781146590942
H           -6.95311745031679        3.60948677414760       -2.20382721332227
N           -7.32134406909729       -0.63124058133409       -0.16397541531169
H           -8.20939780300091       -0.17015681682389       -1.65663855402155
C           -8.25989426245821       -1.71844657081824       -0.01664652881936
H           -7.75444342389454       -2.68171686858777        0.12494297982886
C           -9.21357051120772       -1.48039701477561        1.15950860694965
C           -9.08986182628973       -1.77195060784903       -1.30846067676842
H           -9.69625930473925       -0.51027433325947        1.05683140573676
H           -9.97386252123936       -2.25622144080182        1.16726900615081
H           -8.66095024671517       -1.50503555006994        2.09537394449026
O           -8.89896330324341       -0.72245315013879       -2.09896348879146
O           -9.85026086943251       -2.66402227236791       -1.56371508145155
