42
 energy: -62.486133505775 gnorm: 0.000480688068 xtb: 6.7.1 (edcfbbe)
N           -1.43386076507839       -0.21953199791827       -0.62058515466645
H           -0.57351369069156       -0.75798096845935       -0.58873978392955
H           -1.67507007199055        0.03700698675674        0.33123911293773
H           -3.78192089575112        0.09322198799932       -2.91996286157256
C           -2.50893811171532       -1.03481674442054       -1.17230762749312
H           -2.28358320737483       -1.18041986858675       -2.23923008602157
C           -2.66718679805344       -2.40498417182687       -0.50274768327119
C           -3.79812999607671       -0.24712892497010       -1.02872098406049
H           -2.91002226121660       -2.26354464381509        0.54643319563529
H           -3.47650219866269       -2.95838275730702       -0.97023017014121
H           -1.74577137796161       -2.97796047564724       -0.59183120434167
O           -4.31692600245033        0.30292705047761       -2.14407094225374
N           -4.28621605520198       -0.15542666156700        0.12531304870167
H           -7.70757293194330        0.59760062411937        1.46597594443091
C           -5.51054074008919        0.53043139754557        0.44535956995495
H           -5.47827936541514        0.65618442248565        1.53809512949962
C           -5.66200428773913        1.91276249562643       -0.22558635847539
C           -6.68090950877922       -0.36907913546134        0.12017136734340
H           -4.69951069787129        2.41961636479521       -0.12009730533028
H           -5.83728438249443        1.75241062049983       -1.28938866579347
C           -6.76371446660766        2.82647993851802        0.32455336784552
O           -7.84655194632503       -0.10331252557148        0.81753208425414
H           -7.73838134842960        2.33785264092906        0.21165658864193
C           -6.54588594055942        3.19393668511743        1.79263910418068
C           -6.80148317195811        4.10362947181135       -0.51572808529980
H           -5.58324296572684        3.68568402213674        1.91447248127260
H           -7.32274217893668        3.87875237551858        2.12625203236173
H           -6.56326827657754        2.32594998324644        2.44988271741719
H           -6.98244658972034        3.86850259625873       -1.56155446483281
H           -7.59410656070976        4.76376548456769       -0.17078663691006
H           -5.85513641042453        4.63472364152988       -0.44148232397195
N           -6.55183073251925       -1.28842493744029       -0.71455716909880
H           -8.96520656559387       -0.36868535093414       -0.59156128800557
C           -7.54652042416641       -2.24120267567200       -1.13043626102422
H           -7.01100372456500       -2.96400249180346       -1.75722002826512
C           -8.23352212531062       -2.98891033535029        0.02044259191590
C           -8.62304043678725       -1.60382240063261       -2.02260023365990
H           -8.82724247363265       -2.31715180224304        0.63643823046957
H           -8.88184446618298       -3.76087264679321       -0.38663034031246
H           -7.47702300835299       -3.45556054634383        0.64745400755995
O           -9.28379775430569       -0.57671158433324       -1.48993770074042
O           -8.87445634413171       -2.01555108520436       -3.11898205998728
