42
 energy: -62.486133507922 gnorm: 0.000479822812 xtb: 6.7.1 (edcfbbe)
N           -2.12318646172972       -0.73423597774571       -1.71014504168706
H           -2.16937637355065        0.17724447695560       -2.15446193356405
H           -2.01122543035584       -1.42904829328278       -2.43998545474746
H           -1.43215047691578       -0.43919735505012        0.07819579741295
C           -3.34595339248687       -0.99719038997019       -0.94239383328306
H           -4.26770047987794       -0.77808774186271       -1.49196059701950
C           -3.34211265264641       -2.46378470239605       -0.51033200156812
C           -3.25887792703081       -0.12583033117486        0.31194608773799
H           -2.42498044187408       -2.69248131427843        0.02876479439733
H           -4.19206769111270       -2.65420674318437        0.13563003255761
H           -3.40745439720230       -3.11151699691824       -1.38200559094016
O           -2.00086210579330       -0.04639797750205        0.77217610852134
N           -4.11405628563526        0.53760345923915        0.94809668359183
H           -7.85769567845770        0.74129242961656        1.24478201207358
C           -5.51077014025395        0.77971949722073        0.82274519143262
H           -5.83472521815777        1.02292138986206        1.84618424972511
C           -5.62240237951612        2.05483173850815       -0.06459193029027
C           -6.47511720651522       -0.26094534375541        0.29477291075462
H           -4.81773033453951        2.71739910408170        0.26101030547647
H           -5.40283211103213        1.74757948632562       -1.09006208753681
C           -6.93835951280412        2.84046467577093       -0.04899798628786
O           -7.79019493325437       -0.02695770331452        0.66428518118016
H           -7.76592456594972        2.19437374476406       -0.36219488667789
C           -7.23945465400418        3.43074935978517        1.32851791748601
C           -6.84178812231313        3.97183555851354       -1.07366152755553
H           -6.44253824072136        4.10993613413998        1.62245872446638
H           -8.17232784756593        3.98975825002198        1.30154221129405
H           -7.32740199109004        2.66992997551111        2.10244919972024
H           -6.66884175935765        3.57391772235029       -2.07063787662924
H           -7.76449002053764        4.54692019153435       -1.09143284326862
H           -6.02303781666745        4.64257728253142       -0.82325633291666
N           -6.12210784624825       -1.26119122195488       -0.36362934839731
H           -8.55998368709981       -0.49681003059973       -0.91637839888716
C           -6.96971736748193       -2.30296970516193       -0.89088276991850
H           -6.28214688442599       -3.06350119528616       -1.27858734523259
C           -7.91002650965061       -2.95593670984871        0.12939876728746
C           -7.78185964247557       -1.79865637485907       -2.09380131360639
H           -8.66615100355486       -2.26132136559595        0.48801957263784
H           -8.40405731987576       -3.80730632833616       -0.33223240151755
H           -7.33057052767244       -3.30413268211667        0.98176658741883
O           -8.60832526707022       -0.78290109873402       -1.84848009114245
O           -7.68560786242301       -2.28632835919772       -3.18360203691976
