42
 energy: -62.486133509781 gnorm: 0.000480454982 xtb: 6.7.1 (edcfbbe)
N           -2.94089106517499       -1.22356318177685        1.98167304197868
H           -1.96654642478471       -1.42843147553481        2.16599341586459
H           -3.42136564722417       -2.11134765425351        1.85008069305289
H           -4.46316532282879       -0.28028643711308        2.62451223409949
C           -3.08443585968928       -0.40004035011365        0.78351881180037
H           -2.39589142889565        0.44969210239889        0.88414986489108
C           -2.79835122120494       -1.12230197274163       -0.53238623041308
C           -4.49512441575333        0.16818578817525        0.80517113515287
H           -3.39779259118869       -2.02715299774280       -0.60090688932157
H           -3.05571583494434       -0.47079149201858       -1.36033979854981
H           -1.74632208281514       -1.39256331945086       -0.59629346072584
O           -5.07903594606154        0.17924315785508        2.01520185821945
N           -5.00860286470470        0.62904737719304       -0.24909978596070
H           -8.79400720115112        1.19587749940549       -0.07344362898330
C           -6.37281772918672        1.09322526811015       -0.24079786296015
H           -6.53088234679381        1.83438073406751        0.56225798012405
C           -6.68167793526471        1.72937121184066       -1.60792460382238
C           -7.33021087010487       -0.04542211037645        0.05868452649107
H           -6.11656060803280        1.17158906725171       -2.35544686302550
H           -7.74433501384512        1.62379943072765       -1.84497192384519
C           -6.30727914231618        3.21328598776651       -1.68912688170942
O           -8.64783148667485        0.25286648956491        0.07496684389510
H           -6.78550464690096        3.74090278040136       -0.85368481916812
C           -4.79810670286226        3.40752349733463       -1.58698825497419
C           -6.82806653236442        3.81023882722415       -2.99549145870725
H           -4.30288661092072        2.93074901232475       -2.42901371843969
H           -4.55013192608828        4.46658182185287       -1.59165522098107
H           -4.41393990369641        2.95976554171831       -0.67538207480812
H           -7.91035112583859        3.71963689930953       -3.06446413598600
H           -6.56968656641066        4.86449766466044       -3.05929916839774
H           -6.38599130486253        3.29748264753120       -3.84663010669403
N           -6.88088260229699       -1.18229292336002        0.34291525121159
H           -5.47582067808155       -2.13554516645770        0.63592745347064
C           -7.68635916313381       -2.31480565566662        0.72232138810069
H           -8.39897563121258       -2.05571648938382        1.51532281636114
C           -8.45314123564839       -2.91383880260504       -0.46049783272800
C           -6.70379299598392       -3.36757317823135        1.26417332107556
H           -7.76687927680353       -3.12700990370191       -1.27778097984741
H           -8.93174947135861       -3.83711744523160       -0.14641048348585
H           -9.20845890450483       -2.21257808515141       -0.80545603056148
O           -5.43122789455327       -3.03268267581478        1.06541612285007
O           -7.04539503356487       -4.38890703189139        1.79013998323153
