42
 energy: -62.486133512225 gnorm: 0.000479676622 xtb: 6.7.1 (edcfbbe)
N           -2.80490396402497       -2.78539362040634        0.19994267180717
H           -2.77998477018653       -3.31357479386596        1.06216698168841
H           -2.00618689982394       -3.05360981334787       -0.36137274387552
H           -4.46001085462552       -2.57489409000691       -0.56816459305174
C           -2.82772534324115       -1.33959470785271        0.43976885855226
H           -2.71421574986380       -1.10549547253922        1.50374481072202
C           -1.74057427817020       -0.60792090839027       -0.34279678330810
C           -4.20277734155631       -0.82353008580119        0.00917073762745
H           -1.83420818551477       -0.82123563167569       -1.40570615167478
H           -1.85168311511425        0.46046159655789       -0.18933605573338
H           -0.75329160154429       -0.91679152548244       -0.00480314004015
O           -4.97221833226736       -1.73197010753680       -0.60131151945299
N           -4.47180614971590        0.38583891353178        0.21537989026660
H           -6.96603993817531        0.42078815738080       -2.18386441562724
C           -5.74296813235990        1.00960376990110       -0.08537144159253
H           -5.98589764863906        1.57254358293522        0.82462304431410
C           -5.52339874814643        2.00258348775638       -1.23591108868644
C           -6.88532535548107        0.03250535739863       -0.30724587776887
H           -4.61272736141153        2.55742038450361       -1.00178651629354
H           -5.31549815800259        1.44813065162556       -2.15855086148173
C           -6.67567490595642        2.99460855163003       -1.45111332679956
O           -7.42426467221033       -0.12174728787962       -1.53035472427861
H           -7.63320791792698        2.46130537752883       -1.43222814366740
C           -6.70489702254590        4.05064255553925       -0.34865032868163
C           -6.52514788890656        3.67025126066811       -2.81411397792234
H           -5.76974966929400        4.60600381946344       -0.33067060090620
H           -7.51763690655219        4.75210865683468       -0.52178444660941
H           -6.85442622856733        3.59533692453176        0.62666585481226
H           -6.55686106086373        2.94185045129907       -3.62250399066347
H           -7.32712763667250        4.38681408803238       -2.97341419820578
H           -5.57679972057556        4.20051198547773       -2.86878165058830
N           -7.27463409783432       -0.62658585734457        0.69541948239832
H           -7.27509482297466       -0.87861719416141        2.46601660022726
C           -8.34669473088643       -1.59206717771294        0.61815754335523
H           -9.20455770607116       -1.19877872226765        0.05807371368242
C           -7.90188434500301       -2.91073863380859       -0.02363538578839
C           -8.78335870059293       -1.88756586110433        2.06079500983448
H           -7.05436266393207       -3.31926021499965        0.52218752610181
H           -8.72455533715798       -3.61941450680204        0.00948703769639
H           -7.60666101649704       -2.73745894926719       -1.05452960783954
O           -7.95933605598950       -1.38250182786281        2.97137949611023
O           -9.75781626803800       -2.53258830902997        2.33395743271627
