42
 energy: -62.486133508619 gnorm: 0.000479509869 xtb: 6.7.1 (edcfbbe)
N           -2.23855837064391       -1.31594755546296        1.61975255764062
H           -1.71829271036685       -0.48393305433069        1.87650034607221
H           -1.59945608881015       -2.10179494840585        1.62358790478713
H           -4.04083046870347       -1.00584518672275        2.24855842215060
C           -2.86291869258132       -1.15664511277168        0.30847077969214
H           -2.22533309482631       -0.66441034725449       -0.43816880988882
C           -3.30230710108128       -2.52437119486730       -0.21891531051158
C           -4.12060329381730       -0.33070663703686        0.50375545560055
H           -3.94146540728640       -3.01765331684833        0.51037622152063
H           -3.85509111296084       -2.39656933165153       -1.14478972317246
H           -2.43575819448549       -3.15418201535630       -0.40934604134984
O           -4.67635014842721       -0.47440410625009        1.72142471753729
N           -4.50858803962108        0.43013143606516       -0.41673210315565
H           -7.89015993430577        1.16237430723046       -1.70302925319106
C           -5.79496345691363        1.08928113340393       -0.40523371264763
H           -5.92384530279847        1.63279288648557        0.54680114264566
C           -5.81432750524406        2.08948768109311       -1.57007972125669
C           -6.92831880725411        0.07359856578624       -0.43710153379663
H           -4.78460195217850        2.42029712787126       -1.71290526047551
H           -6.09678380697669        1.57335504880943       -2.49250393462323
C           -6.70549538277839        3.31987398342200       -1.33083008487846
O           -7.99668500237375        0.33139034562678       -1.22352289429531
H           -7.63473666630873        3.01856669400355       -0.82953674932655
C           -5.99761449932136        4.32644315733218       -0.42570939100744
C           -7.06653763873709        3.98040378084426       -2.66090927710799
H           -5.10175646140199        4.70525394571932       -0.91261854963550
H           -6.65159377142691        5.16731097608308       -0.20640970453506
H           -5.70625928045290        3.86752183907357        0.51589478072286
H           -7.62581560171515        3.30206610661003       -3.30311695358062
H           -7.67536365440680        4.86558281823341       -2.49224125005348
H           -6.16400570907472        4.28193538035093       -3.18766803977644
N           -6.86066234721665       -0.95813455956098        0.27691204134387
H           -6.14449188050959       -1.75822783821481        1.78076760644264
C           -7.89151919930952       -1.96697823031746        0.28476161569394
H           -8.88782747782687       -1.52389867503403        0.41850355645569
C           -7.89430435554605       -2.80328310176386       -0.99885867972982
C           -7.61382417002736       -2.89608416780701        1.47704226883535
H           -6.89398148671332       -3.18638197815400       -1.19157839515423
H           -8.57806824019064       -3.63844026617659       -0.87595043189867
H           -8.21060129123144       -2.19517180827075       -1.84209782094688
O           -6.53307086114121       -2.58048960947258        2.17441993210882
O           -8.31342278116192       -3.83614003757492        1.74125949504442
