42
 energy: -62.486133513194 gnorm: 0.000479494405 xtb: 6.7.1 (edcfbbe)
N           -0.91884089311546       -1.02246340845880        0.14980079216319
H           -0.47705473632847       -0.16715375030609        0.47229676478475
H           -0.20181639115413       -1.60559613389612       -0.26614388991218
H           -2.35320416946689       -1.27272555960518        1.36697735802417
C           -1.97612949172067       -0.72753019021954       -0.81807272268185
H           -1.73818931330489        0.09900272167261       -1.50033670094460
C           -2.29774108050467       -1.97686122905373       -1.63960093748753
C           -3.21457319154149       -0.35149078463596       -0.02598091747272
H           -2.54222221624526       -2.80835940464202       -0.98141655140463
H           -3.14650290396059       -1.77622799491960       -2.28672233660602
H           -1.44414073755627       -2.25549910853237       -2.25371620550812
O           -3.23479253526354       -0.86051670169712        1.23555407767784
N           -4.09337059683791        0.36867568961316       -0.55077418786040
H           -5.03451277063353       -1.23787689815635        1.52074446085306
C           -5.34107385215531        0.72782190629064        0.09843777928329
H           -5.13858867872840        1.08027223741530        1.12362387243366
C           -5.97227965191772        1.84454151935924       -0.73447454029555
C           -6.23371676944100       -0.49172049959531        0.21769424018383
H           -5.21121836751486        2.61231498925390       -0.88317867827523
H           -6.21263059983072        1.42361286280306       -1.71013348780964
C           -7.22314495671054        2.47436365489470       -0.11402942112545
O           -5.91071914375374       -1.41567644397553        1.13939548187137
H           -7.88975725164334        1.67259853034003        0.21637994202593
C           -6.87388887604998        3.34894667525937        1.08878004610350
C           -7.95176074780917        3.30754580825303       -1.16691475429604
H           -6.19601551474435        4.14725214741600        0.79310555813571
H           -7.77359688866412        3.80028454157643        1.50084781833002
H           -6.39996797492889        2.76946988792851        1.87717731947537
H           -8.25612309007610        2.68833440732133       -2.00708016538521
H           -8.84099890905341        3.76661065077265       -0.74122784590825
H           -7.30318193649932        4.09804337313459       -1.53868196019976
N           -7.22967855612186       -0.60559808709613       -0.54502796615962
H           -8.14277157787459       -0.05797232345753       -1.99559174555813
C           -8.11516664019478       -1.74430526751544       -0.49677426375408
H           -7.56709877323021       -2.69142491353960       -0.41446726471840
C           -9.10275318316170       -1.64105044657045        0.67160363186245
C           -8.91979137013085       -1.73824729826575       -1.80571551462540
H           -9.63936072537236       -0.69533106341287        0.62226496259780
H           -9.81652234898135       -2.45778546550898        0.61244307774828
H           -8.56591290827644       -1.69638829979887        1.61538365829010
O           -8.79449314073870       -0.60947921290270       -2.49233333691422
O           -9.61088779982266       -2.65443695700603       -2.15518032250472
