42
 energy: -62.486133519848 gnorm: 0.000479016057 xtb: 6.7.1 (edcfbbe)
N           -0.88833229574210       -0.54921454460130       -0.11499555472410
H           -0.06432630818943       -0.81559316563669       -0.64021618276970
H           -0.90390090381417       -1.11111566040533        0.73199198047925
H           -1.82045603225088        1.03785547990186        0.48693627815661
C           -2.10420323011009       -0.79491021365453       -0.89179504672568
H           -1.93799989332531       -0.38253056041409       -1.89531721952672
C           -2.50663109279200       -2.26227879179498       -1.01229753407717
C           -3.21637485389659        0.03139731932673       -0.26551832675750
H           -2.61364276083720       -2.70311753383977       -0.02298869612102
H           -3.46379015942797       -2.32487428047199       -1.51854490785030
H           -1.75795568345253       -2.82075595982115       -1.57047942197228
O           -2.79644622659170        1.09056110321052        0.45914103099306
N           -4.41461462560024       -0.28856454766746       -0.45790680098004
H           -6.82320118003758        0.20683321179870        2.08532645919524
C           -5.48739951112988        0.51455927154790        0.07360100181436
H           -5.20990186476723        0.94613461723557        1.04960833353184
C           -5.80849971188521        1.64904349341070       -0.91723472859692
C           -6.70227232199780       -0.36902107703080        0.22272419291406
H           -4.91065262257519        2.25872448478826       -1.03627638818841
H           -6.03266647308881        1.16833533239003       -1.87020087785042
C           -6.98432819780699        2.53844659453135       -0.50122187239125
O           -7.31384025494722       -0.34982401591085        1.46847645615762
H           -7.84020471120589        1.90221377327319       -0.24935883739804
C           -6.64006630607959        3.41116846423779        0.70466786934582
C           -7.38883626286853        3.42282419722614       -1.67915187035764
H           -5.78953937850614        4.04981244616108        0.47526858198689
H           -7.48512713440356        4.04506754665108        0.96361721420865
H           -6.38911861747248        2.81491359404101        1.57915424467705
H           -7.68525108437780        2.81295752217179       -2.52861123356482
H           -8.22666610441829        4.06009785670488       -1.40642368924072
H           -6.55755315831682        4.05668046449307       -1.98087280165155
N           -7.09926973625412       -1.04458241413584       -0.74712640227399
H           -9.01380264991276       -0.37264439381834        0.85342793176854
C           -8.21872141316887       -1.94674438898837       -0.79233968471022
H           -8.14441450998546       -2.45226165327666       -1.76210493901009
C           -8.23293443207770       -3.00168919757081        0.32279381756373
C           -9.56663940429930       -1.20887481044758       -0.78685155034677
H           -8.36010837379873       -2.54593810678424        1.30236014968851
H           -9.04749452788742       -3.70074668183114        0.14965023777938
H           -7.29081248865070       -3.54488259354550        0.31324105214039
O           -9.77270469779527       -0.38323406436138        0.23981641735474
O          -10.39549005685164       -1.37625375586248       -1.63503352097285
