42
 energy: -62.486133514413 gnorm: 0.000480023723 xtb: 6.7.1 (edcfbbe)
N           -0.93511526656349       -0.92006097394219        0.58770198792627
H           -0.64862398565804       -0.10935605813179        1.12613779853575
H           -0.09997894619423       -1.36875638774675        0.23077346557489
H           -2.50733416867632       -1.50636947376423        1.44227080410969
C           -1.82688983366442       -0.53179563270059       -0.50507641733571
H           -1.57213184002991        0.43076266877455       -0.96685002168850
C           -1.83804166976693       -1.61571892779149       -1.58361065072453
C           -3.22711581922584       -0.42743947139430        0.07656134115340
H           -2.08728268549904       -2.58059272485662       -1.14642019030695
H           -2.57736966437521       -1.36772539432569       -2.33925393724297
H           -0.86138247417501       -1.68789370657901       -2.05723358997171
O           -3.40140964318224       -1.17277984142348        1.20551512267252
N           -4.07762858165853        0.28745024949692       -0.49352771579203
H           -4.93170615566736       -1.83984216716383        0.59485168491429
C           -5.45518177567326        0.49593972586368       -0.11097806504340
H           -5.47489070806468        0.82708121112247        0.94261353917806
C           -6.01744011805410        1.61353104183985       -1.00039653059735
C           -6.33382001691267       -0.74487687179244       -0.13740840677732
H           -5.17889854897295        2.24704783722280       -1.29282281325338
H           -6.42392021351952        1.16099177496902       -1.90461957996657
C           -7.09040161379075        2.47071634056302       -0.31851731357463
O           -5.81986709765323       -1.93305678810122        0.21226097911243
H           -7.77143196283820        1.80787626636326        0.22307510174720
C           -6.46439774940404        3.44887630038023        0.67428482461734
C           -7.88677315607336        3.24342961208481       -1.36832620723731
H           -5.81330616295898        4.14908082408559        0.15487831074714
H           -7.23830450893910        4.01631284041559        1.18582183066959
H           -5.87491606010230        2.92995168856835        1.42638153226467
H           -8.39172216005811        2.56753020956441       -2.05344061197896
H           -8.63869024556588        3.86710274833168       -0.89095274091986
H           -7.22501826969627        3.88681662209425       -1.94449331680617
N           -7.55333043891987       -0.59339029090190       -0.42311971380090
H           -8.79493705847334        0.34883083805834       -1.33238722672694
C           -8.48448878545652       -1.69776927029059       -0.42269627954084
H           -8.03374327867163       -2.62356141216579       -0.80176264372674
C           -9.03960558412514       -1.95437426420537        0.98273586648822
C           -9.65219304825840       -1.30462340509332       -1.34050526413258
H           -9.44989901974850       -1.03374874310624        1.39316813251975
H           -9.82628909367611       -2.70143055487827        0.92728831503870
H           -8.24674762933826       -2.31146749285930        1.63550434612612
O           -9.61597107019185       -0.03505436371753       -1.72535053971478
O          -10.51799514928601       -2.06967045666115       -1.66314013230739
