42
 energy: -62.486132271840 gnorm: 0.000626673205 xtb: 6.7.1 (edcfbbe)
N           -1.78077546807009       -1.17177273342017       -1.83705019921360
H           -1.12269347674936       -1.92358564920610       -2.00201765973485
H           -1.24883073442242       -0.30884614015424       -1.76334685028344
H           -3.44966430077580       -0.47420611423207       -2.50323972006773
C           -2.53308580444084       -1.39589870445158       -0.60390228173036
H           -2.89822606311446       -2.43089675995077       -0.63079626816120
C           -1.73129501996685       -1.17868727941198        0.67761192223875
C           -3.77053029311752       -0.50217559968057       -0.65636969848303
H           -1.33297130240140       -0.16640111356264        0.70143324301196
H           -2.38219408498974       -1.30967855109847        1.53473182547018
H           -0.90635097871350       -1.88627766935266        0.73655341624738
O           -4.12016952701045       -0.11594410450755       -1.88678221104202
N           -4.35260086481814       -0.23245336820378        0.42575471497337
H           -6.96231956466925       -0.54201019511032        2.20678103968961
C           -5.57013555158695        0.54419718974635        0.53324295374188
H           -5.59653998214997        0.86702005911809        1.58463541193735
C           -5.67315729229303        1.77164545549954       -0.38047341086476
C           -6.73025984946564       -0.39359639150492        0.27904704663680
H           -4.74256744225268        2.33846903641918       -0.30912228016040
H           -5.78410619192291        1.40957436360306       -1.40110566918072
C           -6.86059440983363        2.67487753672174       -0.02772396106598
O           -7.40001763019383       -0.84523930579620        1.40194734153175
H           -7.74210412302249        2.04480029648613        0.13865865924134
C           -6.59615517437108        3.49861666926625        1.23160086954026
C           -7.16076996718893        3.60566509403942       -1.20064292263131
H           -5.73973575430185        4.15239413109857        1.07934259771215
H           -7.45989269555337        4.11650251133945        1.46666785530245
H           -6.39213176094460        2.86570720314260        2.09223691927221
H           -7.41574951954296        3.02969482771003       -2.08634037074907
H           -7.99659902511591        4.26031313002614       -0.96457212974988
H           -6.29328004705803        4.22241796454234       -1.42623264090580
N           -6.99498874690377       -0.74338871322333       -0.88975975000954
H           -9.05905884170158       -0.77189623620085        0.65513543702318
C           -8.00807402831877       -1.66798491865472       -1.32286928422140
H           -7.81944736826915       -1.82305705872230       -2.39153356059010
C           -7.98474289774435       -3.02503250061391       -0.60564764450438
C           -9.42175494765126       -1.07698876426716       -1.20847096236351
H           -8.22915917468844       -2.92397650250925        0.44955328770140
H           -8.70433543638172       -3.69283031718009       -1.07291448868951
H           -6.99103346636570       -3.45958266724943       -0.68970561764325
O           -9.77361283359984       -0.64632068431186        0.00316080344614
O          -10.17447961859528       -1.02519315980196       -2.13854050306709
