42
 energy: -62.486133503969 gnorm: 0.000481077639 xtb: 6.7.1 (edcfbbe)
N           -1.65660034207870       -1.12703238105422       -0.41556477163186
H           -1.06578536471018       -1.94581923428457       -0.33510228942534
H           -1.17368946233878       -0.35657535427181        0.03912537818292
H           -2.71583861313785       -0.22804441416817       -1.73954726497513
C           -2.94819925644345       -1.35245135896039        0.23523318868430
H           -3.32569906588799       -2.31932705793205       -0.12227883975182
C           -2.90234600567047       -1.36856461258735        1.75992310272531
C           -3.91401041058726       -0.29678755619715       -0.29769364181257
H           -2.50459542091290       -0.42708479125804        2.13346316028153
H           -3.90616005792093       -1.49564219043175        2.14890829463787
H           -2.27438428472345       -2.18451337580087        2.11131989626105
O           -3.58398596179730        0.16806610668301       -1.51956890051646
N           -4.90772039526703       -0.00087255346640        0.40329003319674
H           -8.33975162209117        1.52889396350692       -0.37633473576042
C           -5.99720364726200        0.88978502394653        0.09728350634019
H           -6.14204285652892        1.48230485229613        1.01263929898017
C           -5.76040753017205        1.83584564938024       -1.09973070584737
C           -7.21956063303583        0.00079224288515       -0.04370509395482
H           -4.75577661980709        2.24235046291766       -0.96482843763027
H           -5.74478994230247        1.23741116375174       -2.01241068896336
C           -6.71266790082663        3.02483915851110       -1.30084500698275
O           -8.41257389247198        0.56840561630586       -0.32266378253264
H           -7.68308525953852        2.67607214968355       -1.67616297089747
C           -6.92439688406244        3.84128861534902       -0.02581557309181
C           -6.12603202909504        3.92613420215270       -2.39010677704201
H           -5.96554842508318        4.16166704034036        0.37625069341472
H           -7.51340599472450        4.72934668424016       -0.24597305910332
H           -7.44701643717895        3.28093824678629        0.74773698657790
H           -5.95125385437168        3.35975093065008       -3.30162370702492
H           -6.80765483772829        4.74250093787331       -2.61844201010087
H           -5.17922918147216        4.35052655389612       -2.06387976115832
N           -7.08976067234600       -1.22479771415271        0.19966926951287
H           -6.04243742134009       -2.46296381114087        0.89934887786962
C           -8.16547179730643       -2.18034853840505        0.17229730952945
H           -9.03649108367124       -1.83171266563551        0.74306397565450
C           -8.61248620549368       -2.51579571352156       -1.25381889645915
C           -7.61866990856755       -3.45695317670204        0.83819868695557
H           -7.75150536743163       -2.80850930398426       -1.85146839380083
H           -9.32054665144410       -3.33905617421472       -1.22219792986390
H           -9.08328592005152       -1.64855939889048       -1.70983637837892
O           -6.33307997173047       -3.37618396500627        1.15482657116246
O           -8.29104423139542       -4.43134949949222        1.03595644505708
