42
 energy: -62.486133530248 gnorm: 0.000477917476 xtb: 6.7.1 (edcfbbe)
N           -2.53126795948850       -2.20242559955531        1.32361514294813
H           -2.58005651348411       -1.87790383460582        2.28371517865951
H           -1.64323279178439       -2.67214037471640        1.19491601226669
H           -4.35792148627065       -2.51589284439264        0.92908599482282
C           -2.67504654380266       -1.08888468468448        0.38913466650770
H           -2.14158413222216       -0.17858962266132        0.69474271219006
C           -2.18773371126688       -1.51077170428283       -0.99712848401072
C           -4.16577774204578       -0.76427496890930        0.30370314624265
H           -2.71322257734838       -2.40644897770443       -1.32156329743455
H           -2.37700657937475       -0.71145163413947       -1.70704724101982
H           -1.11981445720012       -1.71907736096776       -0.97748984039325
O           -4.95690070227160       -1.80565597535917        0.60787940030308
N           -4.47821330726429        0.39179660957378       -0.06175176360801
H           -7.37925836056304        0.72254305666883       -2.11115434499600
C           -5.76601931078298        1.01531368197737       -0.23788390337789
H           -5.91385040242482        1.60875432184705        0.67638400680224
C           -5.61304985048544        1.98781729166783       -1.41867334343832
C           -6.98191575821804        0.10330266833522       -0.33123325498376
H           -4.62213385466104        2.43391111859442       -1.32158118174397
H           -5.60094339316363        1.42426187076904       -2.35804644897756
C           -6.66556792552483        3.10692110245984       -1.46354199330754
O           -7.72747721834957        0.10226217356861       -1.45875927036028
H           -7.65310199596416        2.70165279026874       -1.21270588122526
C           -6.33916475208888        4.19919599638474       -0.44739853480395
C           -6.72998634652308        3.70744225281611       -2.86784800550658
H           -5.38354461436372        4.66204771409166       -0.68363940022304
H           -7.10669217990158        4.96953012896618       -0.46082235304495
H           -6.28455042227769        3.79356843041559        0.55955305268171
H           -7.02339456895371        2.96262807458752       -3.60584131289309
H           -7.45326161191018        4.51855073840876       -2.90149230745128
H           -5.75771650135344        4.10450320858103       -3.15155098217563
N           -7.24209886981090       -0.62826693819817        0.65642007784805
H           -6.54785667833146       -1.54395727110505        2.08667398363750
C           -8.34372809158306       -1.55662458715738        0.71154549613030
H           -9.30398432916424       -1.03878449460160        0.59898809182492
C           -8.25229661692726       -2.67368153005518       -0.33590662840003
C           -8.28604409952664       -2.21686283391410        2.09740088000048
H           -7.27348776739666       -3.14543275931393       -0.28017185485561
H           -9.02155674382386       -3.41484327088070       -0.13695536025885
H           -8.39350453520285       -2.26521950923383       -1.33257949710798
O           -7.10365121561103       -2.09697562173019        2.68671373703033
O           -9.20857475688566       -2.81386244416572        2.58122998348534
