42
 energy: -62.486133514001 gnorm: 0.000479869072 xtb: 6.7.1 (edcfbbe)
N           -2.02814937961094       -2.31010237896239       -1.11621353460237
H           -1.05197686228412       -2.57996410785536       -1.11941862829399
H           -2.32213729851140       -2.20700361038141       -2.08375210472020
H           -3.71208211238534       -2.78061929676483       -0.36570228420807
C           -2.22013969555504       -1.04652260329860       -0.40687192844534
H           -1.69138409317380       -1.12788622726276        0.55120647947025
C           -1.71527609958199        0.18248898534000       -1.15867651126886
C           -3.71481333816839       -0.93048816218744       -0.08545647778565
H           -2.21679642038226        0.26202129946154       -2.12091993302685
H           -1.93954822145369        1.07240265186266       -0.58155439062944
H           -0.64106655988099        0.11692369277341       -1.32182310657494
O           -4.34857273939741       -2.10680159135769       -0.04794076579780
N           -4.14936427404824        0.20998155375492        0.20146363947348
H           -7.42568532354904        0.91264551560733        1.84044294465389
C           -5.47464657818942        0.70344592533150        0.42209196109804
H           -5.42150392649220        1.22877810165250        1.38780021264600
C           -5.71937020887039        1.74238448050837       -0.70062815692707
C           -6.65620126951015       -0.24008698549445        0.45371296841692
H           -4.81825519791021        2.35306301494707       -0.77521188743790
H           -5.82270883305075        1.17941453820589       -1.62989543887768
C           -6.93972396839761        2.65045892635489       -0.51678219270963
O           -7.66385533931483        0.11938390843818        1.34633593072606
H           -7.82653957392144        2.03758431838045       -0.32232589140460
C           -6.74724021553514        3.63777879839084        0.63396647764241
C           -7.19093320860559        3.42076494877750       -1.81252455733129
H           -5.89674970028248        4.28509566950738        0.43136329607390
H           -7.63154645513509        4.26099112404851        0.74746804324018
H           -6.56670161451881        3.13617236658173        1.58281038695461
H           -7.38064412832575        2.73495897873298       -2.63430454184802
H           -8.05464454307213        4.07282534655086       -1.70572896542212
H           -6.32698778625645        4.03189343646568       -2.06464939065613
N           -6.69894351121517       -1.25222050629740       -0.27031579709784
H           -9.04801949465347       -0.33395924638224        0.28022634166391
C           -7.73283853450010       -2.24818433767458       -0.34286186170775
H           -7.32364666629726       -3.04055057313742       -0.97996974011131
C           -8.12717662587738       -2.84990876058120        1.01255097810744
C           -8.99402994354353       -1.72361033046726       -1.04349460184214
H           -8.59336307232160       -2.10972523617555        1.65941903187001
H           -8.82221087280565       -3.67128799662890        0.85645917941297
H           -7.23407230593272       -3.22735914403443        1.50505755599472
O           -9.54918093399770       -0.63950794480498       -0.50039879298409
O           -9.46746435085518       -2.25769446994797       -2.00601908977926
