42
 energy: -62.486133517327 gnorm: 0.000479472604 xtb: 6.7.1 (edcfbbe)
N           -0.81150653648071       -0.43103541298556        0.33429912475046
H            0.11692083766272       -0.43179227655641       -0.06972076830020
H           -0.88406895621655       -1.24809297035464        0.93462164061866
H           -2.01517371426935        0.79225176310391        1.21812509034209
C           -1.83859006688742       -0.48070384219718       -0.70495058883739
H           -1.55843856934481        0.24639952002858       -1.47773273226488
C           -2.03061929313737       -1.84994276663569       -1.35461304640043
C           -3.13039297426518        0.03144947737614       -0.08364841852918
H           -2.25432866350936       -2.60006927965717       -0.59751644541144
H           -2.85893683145910       -1.80322562819066       -2.05385256034780
H           -1.12929050239901       -2.14819759860568       -1.88584061558837
O           -2.97156859018559        0.79222941723475        1.01020623521997
N           -4.23382306843508       -0.24828532011515       -0.62237014728032
H           -5.02019656750773       -2.06276099169432        0.02275736567903
C           -5.47963977562068        0.24587927124990       -0.06723537064231
H           -5.36495972317567        0.47402451603432        1.00461775525358
C           -5.92565892499605        1.51339622867736       -0.80704279785400
C           -6.47959944182133       -0.88464009398816       -0.18997659532463
H           -5.04352053764377        2.13413395622375       -0.97888075015561
H           -6.32006694103122        1.21372393813420       -1.77824550769927
C           -6.97259720634994        2.32902724507869       -0.03867260712164
O           -5.98865194033900       -2.11666265304985        0.05116838345770
H           -7.68746796137035        1.63490879257731        0.41197461385354
C           -6.31814219682282        3.15203052613909        1.06963404756695
C           -7.72128385103872        3.25359752111560       -0.99679588816656
H           -5.64980886467370        3.89691738853533        0.64192308802430
H           -7.07442752570242        3.66819463346568        1.65630139310474
H           -5.73911787155719        2.52263010641926        1.74083964401583
H           -8.23949215353377        2.68530371689610       -1.76507218725234
H           -8.45682873867595        3.84409102623362       -0.45589694487765
H           -7.02661303359909        3.93575692263805       -1.48294948749100
N           -7.66737018975347       -0.66272745915401       -0.53981509516204
H           -8.86811876334542        0.42994054728346       -1.34205044881935
C           -8.63209456688071       -1.72755430470238       -0.68738787555224
H           -8.19553017323297       -2.61263962356614       -1.16808358691498
C           -9.22586976788618       -2.14272105576042        0.66298073559435
C           -9.76627928422524       -1.18821179321807       -1.57194715903312
H           -9.62896119991303       -1.27168844036632        1.17597336965592
H          -10.02492313474595       -2.85999577309114        0.49799343165647
H           -8.45513973184708       -2.59459655660828        1.28246802364552
O           -9.68994946447668        0.11880447601345       -1.79089388232992
O          -10.64406480072217       -1.88117301312023       -2.00575742992721
