42
 energy: -62.486132590719 gnorm: 0.000643468560 xtb: 6.7.1 (edcfbbe)
N           -1.90134464144888       -2.20930420077031        0.24759752510441
H           -1.76839690427970       -2.19458517058505        1.25355870585158
H           -1.04756380782480       -2.55496466720884       -0.17465534694982
H           -3.81193424412305       -2.49171235994631        0.02589216798975
C           -2.22294299340448       -0.87375258725673       -0.25292593723549
H           -1.63655590199598       -0.06890316733051        0.21086325586173
C           -2.02474006413725       -0.83070040561442       -1.76839939377103
C           -3.69682273597863       -0.62408413354354        0.03155230552858
H           -2.61300916676284       -1.61237818951099       -2.24430527811705
H           -2.34611812286437        0.13369026023380       -2.14945856405276
H           -0.97617150330967       -0.97910926759977       -2.01845178334519
O           -4.43851888232471       -1.74242309158411        0.10115392804488
N           -4.08131973832545        0.56011163384920        0.18257381576901
H           -6.11994273414230       -0.03178762767279        2.39451097571653
C           -5.44854050510222        1.00669804177549        0.30944212630838
H           -5.45963471934640        1.64837712882494        1.20343763798441
C           -5.76300058586228        1.86621910742677       -0.92385878109810
C           -6.47692584894620       -0.08833628249307        0.48001609219430
H           -4.92634851804030        2.55061570679193       -1.07173040419501
H           -5.81804831029150        1.19033074429058       -1.77686857296527
C           -7.07188264520366        2.65496830279875       -0.82248502340477
O           -6.73647340200132       -0.45983800045647        1.78877732779730
H           -7.87697781238148        1.96214745048222       -0.55789147457827
C           -6.99890221632962        3.75781548703069        0.23170434529051
C           -7.39576088767110        3.26332262080924       -2.18568340579667
H           -6.16895376142969        4.42932651518135        0.02110069862918
H           -7.91851806461935        4.33833912350283        0.22939463316592
H           -6.86729929504286        3.35043835544343        1.23114691292451
H           -7.49140543204254        2.48333310863236       -2.93628230531796
H           -8.33197954152635        3.81465250088364       -2.14447359827106
H           -6.60686674400142        3.94664612538309       -2.49358034586079
N           -7.02024259408036       -0.59768076257897       -0.52295712309490
H           -8.53696944752182       -0.63473795259757        1.55698141269929
C           -7.98774479098904       -1.66260768972219       -0.54846711015025
H           -8.08831360949893       -1.93563055179630       -1.60541862496380
C           -7.59592692491263       -2.90822082376763        0.25741859726771
C           -9.37186774712722       -1.18954689812956       -0.08227547015099
H           -7.57238114474999       -2.70226021040471        1.32509719045896
H           -8.31107184084458       -3.70407962346622        0.06478450148567
H           -6.60509045087520       -3.23109975523402       -0.05127206513917
O           -9.41690800121804       -0.64951807805981        1.13655852901256
O          -10.35677495947425       -1.31179607595468       -0.75318736980495
