42
 energy: -62.486133499874 gnorm: 0.000481728982 xtb: 6.7.1 (edcfbbe)
N           -1.52282082133916       -1.68892939240011        1.00244163563585
H           -0.51963156952739       -1.82466847969713        0.99071298549606
H           -1.95749314758373       -2.59983871052358        0.88256740498732
H           -2.89146754101834       -0.81789392987961        2.04422187864202
C           -1.94613179096323       -0.78925884294125       -0.06810702476607
H           -1.27031682059343        0.07533647210127       -0.05709653658317
C           -1.94204893650034       -1.41077295624451       -1.46453831485604
C           -3.32694614571771       -0.26798748989718        0.30548382605578
H           -2.60283433661310       -2.27575037528316       -1.49398353101315
H           -2.28881032464595       -0.67991988406775       -2.18769867272161
H           -0.93690095091126       -1.72875841175773       -1.73389070696784
O           -3.64109406702699       -0.36897981024223        1.60305021759348
N           -4.06025865603632        0.24533029832098       -0.58189933771685
H           -5.06339845695203       -1.06639097092783       -1.73383600931885
C           -5.39391683485701        0.71274341308768       -0.25002127500857
H           -5.47899681296975        1.00095382296564        0.80265972369381
C           -5.71163172367023        1.90836707820120       -1.16348813084421
C           -6.35207053853299       -0.42623343878186       -0.51747608698071
H           -4.94896047810333        2.66890549489266       -0.98392012654826
H           -5.60652679687726        1.57623571807457       -2.19915561231383
C           -7.10134865721097        2.51920647834864       -0.96405136426633
O           -5.94879087807855       -1.33161213020372       -1.42702616333515
H           -7.85134760955797        1.73357636934264       -1.09612691540075
C           -7.26552274972697        3.11722780814332        0.43080255709193
C           -7.33839168054243        3.59565462000407       -2.02249260355630
H           -6.51899426279273        3.89036858836025        0.60221846281223
H           -8.25151793124670        3.56401428971449        0.53118019987277
H           -7.16092000778596        2.35640737371523        1.19897402184941
H           -7.25155579339601        3.18083425705817       -3.02410018021589
H           -8.33370974454912        4.01894753020135       -1.91366003776036
H           -6.61091317881927        4.39820446200649       -1.91857709127913
N           -7.46962563841813       -0.45395021740433        0.06195029589182
H           -8.79139388192457        0.44065167520565        0.93408387118621
C           -8.43743168689802       -1.49470163588499       -0.20396076323474
H           -8.49567462104072       -1.73643682604349       -1.27331604314242
C           -8.11603748396473       -2.77492334285857        0.57424490828037
C           -9.80599519815070       -0.97222190206847        0.25809141859065
H           -7.99716245110917       -2.54576151040718        1.63133852366208
H           -8.93043353413379       -3.48333780604276        0.45125469472285
H           -7.19421756951634       -3.21375524620562        0.20036047946450
O           -9.74056149024826        0.17383514231547        0.92403791322348
O          -10.83238845960379       -1.55674340102668        0.04768255132513
