42
 energy: -62.486132244807 gnorm: 0.000632464350 xtb: 6.7.1 (edcfbbe)
N           -1.29990138180961       -0.84781152891499       -0.44576391899237
H           -0.65402316182312       -1.62014402671487       -0.55480225251950
H           -0.94404415106589       -0.25533565970690        0.29958844090682
H           -2.22934669194037        0.42256119779576       -1.51357581869616
C           -2.63678575977570       -1.32938350102534       -0.09707250637229
H           -2.87111885736279       -2.15965364277018       -0.77569270503230
C           -2.79017546117797       -1.80112370528078        1.34574145654261
C           -3.62193652896304       -0.21063593199700       -0.42798145385898
H           -2.52437854633129       -0.99931820762866        2.03164215929859
H           -3.82436505488211       -2.07377138191041        1.52466063307174
H           -2.14876341242517       -2.65913636471384        1.53685420691514
O           -3.16214194111872        0.66891938199234       -1.34266116806511
N           -4.74477940997070       -0.22542240988449        0.12673749011496
H           -6.68517800900052        0.56863829239620       -2.36946636632850
C           -5.83265578375926        0.70653502478458       -0.05767428611510
H           -6.13065027682882        0.96925060673750        0.96517471735533
C           -5.56988001085144        1.99050761941832       -0.85192485753555
C           -6.95524258484067       -0.15563833727165       -0.61390688804072
H           -4.71905262320856        2.49796037044730       -0.39346803407254
H           -5.26479976929777        1.75302557381603       -1.87571934543239
C           -6.77267523703349        2.94597124537823       -0.86913014726985
O           -7.22565079983804       -0.10293091775603       -1.93270844031326
H           -7.68268105673320        2.38464185276118       -1.11230628717040
C           -6.97648838637568        3.61018288504181        0.49078942850479
C           -6.56287415066718        4.01531278454096       -1.94112256592761
H           -6.08662157785566        4.16657059980274        0.77800387859752
H           -7.81363175173469        4.30305667561886        0.44756556779892
H           -7.18929972757399        2.87442838461638        1.26187373455340
H           -6.46981248829434        3.56961328769898       -2.92969169959216
H           -7.40228872795949        4.70622100748189       -1.95863576600475
H           -5.65719629632859        4.58181084532371       -1.73518785493543
N           -7.52513228668082       -0.95938704302293        0.16838469783865
H           -7.85801784898144       -1.53347549149792        1.84789501745734
C           -8.52945030417716       -1.89541796450732       -0.28097366325829
H           -9.27178823096383       -1.41953704688849       -0.93408138791507
C           -7.90635394030068       -3.08351129362386       -1.02298421343681
C           -9.23718377264054       -2.43023858115057        0.97363895950937
H           -7.12830064025210       -3.53366759728929       -0.40978819238736
H           -8.67586746636794       -3.82302517475330       -1.22611553044326
H           -7.46908765895402       -2.74822194990072       -1.95983649048873
O           -8.62412416088597       -2.10149126537312        2.10330078852046
O          -10.23244532032610       -3.09895442533555        0.92935584365352
