42
 energy: -62.486133502720 gnorm: 0.000481385370 xtb: 6.7.1 (edcfbbe)
N           -0.81258752955926       -1.11378749283000       -0.61631475725914
H           -0.35558178133304       -1.98619986986398       -0.85860934617238
H           -0.51420239005992       -0.86237431861987        0.32393831577354
H           -1.13567153488455        0.67450256907969       -1.24205475723970
C           -2.26589439399464       -1.25507950538029       -0.65430862262201
H           -2.51260827351824       -1.74726109798491       -1.60616526467261
C           -2.84218221650697       -2.06663888127257        0.50857063678573
C           -2.87170323551383        0.17077581162512       -0.70162889060838
H           -2.61377512999804       -1.57763041634157        1.45466317352101
H           -3.92034483422615       -2.16085117617596        0.42550946381337
H           -2.41209084616842       -3.06693542843773        0.51719838471199
O           -1.99858651345867        1.11608966308956       -1.11319284492471
N           -4.02972266244099        0.43771142064079       -0.38101840014330
H           -4.74367162504371       -1.11794973456584       -1.43202761817926
C           -5.37039102428123        0.71040269882137       -0.09419259189659
H           -5.46015714822343        0.81130086596276        0.99295426317778
C           -5.79320039750849        2.04856843678826       -0.75622432102965
C           -6.25932418802170       -0.44241999398383       -0.54342341649926
H           -5.05405925639850        2.78855021418086       -0.44097670579225
H           -5.69650461103910        1.93147133911025       -1.83849843296534
C           -7.19611494103014        2.56312833989990       -0.43181068611484
O           -5.67062475276662       -1.38332310211179       -1.30176093389089
H           -7.92862143519998        1.84681188539765       -0.81397814955086
C           -7.41185973254615        2.73631370984044        1.06971893107942
C           -7.41338622531441        3.89838930416439       -1.14408532440494
H           -6.64037980772746        3.37676088424149        1.49183282600777
H           -8.37726420114325        3.19904911928505        1.25520135127396
H           -7.39140322703853        1.77951342612156        1.58338665983046
H           -7.25022978478073        3.79740747733814       -2.21424849084020
H           -8.42970026221612        4.25049090404636       -0.98506298468447
H           -6.72573988572968        4.64986056342447       -0.76135351473314
N           -7.48536845695312       -0.45571185565348       -0.25270875621865
H           -9.02293069906486        0.33576429965599        0.41936229897446
C           -8.33801398866163       -1.53392761064298       -0.70392653659283
H           -8.16966237246386       -1.77194196788876       -1.76181532985751
C           -8.12413545537582       -2.80698306373926        0.12529464003454
C           -9.79342857260067       -1.08621920738440       -0.52123173147014
H           -8.26922785316809       -2.59070409515379        1.18155992650661
H           -8.83829758573571       -3.56301027473632       -0.18491033485383
H           -7.11543365412057       -3.18117491775393       -0.02555365494898
O           -9.92740518068092        0.01875539848506        0.20227427676444
O          -10.72469454553708       -1.69554137863773       -0.96808959397913
