42
 energy: -62.486133516272 gnorm: 0.000479440654 xtb: 6.7.1 (edcfbbe)
N           -1.57361694297013       -1.41553091523342        1.13876767246279
H           -0.59750330851788       -1.66102463165812        1.02687208977875
H           -2.07201652807992       -2.25821433328958        1.41204274518677
H           -2.69064769036950       -0.10011474992083        1.98725188761702
C           -2.13137706159129       -0.89214105885113       -0.10678165187210
H           -1.42310325349733       -0.14808218529454       -0.49394167437641
C           -2.39023687252929       -1.94700652029026       -1.18096481647936
C           -3.40481667988298       -0.14023971043800        0.25647865124233
H           -3.10088837692100       -2.68592444658757       -0.81615513995544
H           -2.80940729561751       -1.47385414543934       -2.06234987200946
H           -1.46308527853082       -2.44899561745021       -1.45076497167817
O           -3.47947194831522        0.25999169641404        1.53381417310749
N           -4.27226995894385        0.07598652450478       -0.62882546101422
H           -5.76292359635604       -0.38610966008241       -2.33588351423026
C           -5.50125387568786        0.78191841843029       -0.31527792091285
H           -5.57352318276149        1.03765325969381        0.74672660473680
C           -5.59227142598647        2.04748704332338       -1.18016045243889
C           -6.59793384249537       -0.19879209198039       -0.65474654092023
H           -4.84723061359077        2.75821004130260       -0.81692156822305
H           -5.32148237412322        1.79038922408384       -2.20828421216509
C           -6.97776513412187        2.70278324450381       -1.17136880982879
O           -6.57388796175168       -0.69214585470707       -1.90498122896262
H           -7.71336695727855        1.97319538718463       -1.52880896040924
C           -7.38397334960358        3.14723365173358        0.23109100036343
C           -6.97910848645278        3.89706687971702       -2.12441254240515
H           -6.63225177260918        3.81203457319508        0.65146984227076
H           -8.33096196663775        3.68041650618502        0.19402328033130
H           -7.50397079860098        2.29188440005612        0.88983427309705
H           -6.71009530494528        3.59041694876207       -3.13293033408931
H           -7.96495568246350        4.35402227204264       -2.15845112678321
H           -6.26504961203999        4.64735287010598       -1.79127738992055
N           -7.40841036607686       -0.56704942205789        0.23574505225820
H           -8.22174633077304       -0.28002994972372        1.83067516341939
C           -8.44012930493814       -1.54532757564882       -0.03470593572929
H           -8.92853222462263       -1.36820814332145       -1.00094737605021
C           -7.88168881903308       -2.97259553713093       -0.01782727325280
C           -9.48876212218314       -1.42167075029930        1.08054732170911
H           -7.34914380705359       -3.15057984878624        0.91447198212230
H           -8.70272640885032       -3.67926378978056       -0.09992490226907
H           -7.19746460710257       -3.11280502436644       -0.85093875012520
O           -9.10701871183526       -0.63566396775998        2.07987191785595
O          -10.54012142167913       -1.99869883438008        1.05688376607184
