42
 energy: -62.486133517706 gnorm: 0.000479484223 xtb: 6.7.1 (edcfbbe)
N           -2.15467109752829       -0.13669591216185       -1.62867518151090
H           -2.16981907781398        0.87252380647913       -1.73604092695692
H           -2.10420807895125       -0.54654331804593       -2.55462255188445
H           -1.36291147602517       -0.47658375804875        0.13701625384378
C           -3.35070418425325       -0.60191442419185       -0.92501830186893
H           -4.28382658871920       -0.18341824628530       -1.32566268232181
C           -3.39868027580340       -2.12973632144186       -1.01542221835267
C           -3.16043356390016       -0.18318313638873        0.53879674869109
H           -2.47288914419490       -2.55617589549631       -0.63428482459186
H           -4.22921154646855       -2.52998666997522       -0.44252005660114
H           -3.52238338871897       -2.43463679469156       -2.05288608836444
O           -1.89583829097913       -0.31610500429372        0.94298115452392
N           -3.99443804152648        0.25312905216162        1.37966993740742
H           -5.25642965953352       -1.76165681074474        1.89659552921480
C           -5.40263080463108        0.48270026098171        1.14114024057499
H           -5.83394428832640        0.59602269020795        2.14744590548378
C           -5.63452072355017        1.78727350634599        0.36630089034143
C           -6.06557642225003       -0.71885309732255        0.50988041322070
H           -4.94223988770639        2.53225387294918        0.76360245346460
H           -5.38392152579388        1.62077020714637       -0.68215835878259
C           -7.06960034167726        2.31911958660161        0.46585236606296
O           -5.86015648687728       -1.89204022584870        1.15143490215130
H           -7.75882935272329        1.48035243768319        0.33150904323742
C           -7.33371226359954        2.96215481655431        1.82538261954188
C           -7.31834817268594        3.33884216371909       -0.64474159643953
H           -6.66639171210259        3.80728421162946        1.98026079771603
H           -8.35874313152055        3.32136129733777        1.87886855291858
H           -7.18265606957868        2.25446957888883        2.63627286674717
H           -7.18707170332243        2.88915080280161       -1.62635831567455
H           -8.33147866761800        3.72831215850233       -0.58214182736716
H           -6.62608367883315        4.17317885100988       -0.55293454720076
N           -6.75111068758030       -0.60913720343962       -0.53827290907726
H           -7.17661163477887        0.35394443118453       -2.04694544927151
C           -7.35956227082914       -1.73788702852229       -1.20099304484995
H           -6.79066433881369       -2.66649345203590       -1.07211425552023
C           -8.79330139921820       -1.95391689437577       -0.70359775731207
C           -7.42286180247880       -1.38134275610421       -2.69309170618327
H           -9.36911288938290       -1.03678202031903       -0.81152977896292
H           -9.26340911574767       -2.74103597277918       -1.28635719125712
H           -8.77925377855218       -2.24140055888524        0.34499929267574
O           -7.33086604933567       -0.07402439113855       -2.92043601978321
O           -7.55708766825521       -2.19510871235398       -3.56222592514187
