42
 energy: -62.486133517517 gnorm: 0.000479400697 xtb: 6.7.1 (edcfbbe)
N           -1.38073741555688        0.36668587138002        0.18026961545728
H           -0.52390574340356        0.14390505933155        0.67447978175259
H           -2.08386080606798        0.64683637852099        0.85583903718201
H           -2.96507956030858       -1.47098303116513       -2.59614618874424
C           -1.86304042733438       -0.78910313007145       -0.54523757768580
H           -1.27276087540479       -0.86551338044358       -1.47211484143676
C           -1.74645487163826       -2.11721185949746        0.22789032873662
C           -3.32337074083959       -0.58726055658014       -0.89448971860061
H           -2.31005445324945       -2.04741799382203        1.15552214578036
H           -2.13963253010171       -2.94719308088806       -0.35578971396869
H           -0.70329919779936       -2.32166991971151        0.46009778123415
O           -3.71187270159891       -1.09554553819756       -2.11355432138649
N           -4.05385535450401       -0.01113018061624       -0.06767527667969
H           -5.43828038974072       -0.87948236191743       -2.23691319759748
C           -5.44195575747341        0.34615373893037       -0.02947369233967
H           -5.69125061035072        0.38299143525519        1.03560204956070
C           -5.55160067406899        1.77461225951193       -0.62000747267067
C           -6.50746047763684       -0.50707211405104       -0.69075924901029
H           -4.72514380294310        2.36036554434897       -0.21206896347438
H           -5.40524824247409        1.70465121608718       -1.70181538572523
C           -6.87532217318217        2.48882158863656       -0.33137207351775
O           -6.35494481807508       -0.98633533981240       -1.92808839647977
H           -7.70333841022000        1.83058226758154       -0.61165068475041
C           -7.01530546426399        2.84367362015908        1.14630227690051
C           -6.95844529888417        3.75647293868366       -1.18082507031633
H           -6.20878273653937        3.50588754862459        1.45447063607466
H           -7.96150660642933        3.34968018672166        1.31977235464799
H           -6.99187170069549        1.95470938151736        1.77011319207771
H           -6.91339678435419        3.51735323818401       -2.24095139850674
H           -7.89295004574878        4.27745832786595       -0.98921378001302
H           -6.13560298682113        4.42779524683589       -0.94389690660716
N           -7.58330432020274       -0.63329314430859       -0.03732116864500
H           -8.69854521651756        0.03806067624084        1.22221491414341
C           -8.72903999060923       -1.31781410400655       -0.59306364185911
H           -8.85437694353711       -1.10900009619975       -1.66363357367290
C           -8.62908987033773       -2.83384985515088       -0.39442791594621
C           -9.96993005176016       -0.80819823695318        0.15465013019993
H           -8.45606146586949       -3.05937052332761        0.65591790463162
H           -9.55818602431764       -3.29894005464555       -0.71146581014064
H           -7.80581827417757       -3.23115365756860       -0.98311500189225
O           -9.68119978848915       -0.04366655049389        1.20132211009433
O          -11.09030765796887       -1.08751742797180       -0.17045816898898
