42
 energy: -62.486133505538 gnorm: 0.000480870042 xtb: 6.7.1 (edcfbbe)
N           -1.71666282285003       -1.96532454813194        0.24920759674740
H           -1.18805366869290       -1.42892749867149        0.92932325291325
H           -1.06869438952839       -2.56709622559423       -0.24558090912623
H           -3.48990860270558       -2.09088998924168        1.06651936929926
C           -2.40876490254404       -1.07747587804905       -0.68511936184500
H           -1.80692976445244       -0.22053433194802       -1.01662549263171
C           -2.87073966150848       -1.87178723966434       -1.90745701553150
C           -3.64981520499112       -0.55574336063164        0.00994796992340
H           -3.46363487073817       -2.72674522507593       -1.59142942866043
H           -3.48517352007169       -1.23669163036148       -2.53714614652202
H           -2.01463216159811       -2.22551116116427       -2.47830160730239
O           -4.12678143960080       -1.35209598953129        0.98272291568055
N           -4.14484939427472        0.54019105686837       -0.35578701381632
H           -7.35329800709693        0.79809045613161        1.61822828760711
C           -5.40354840636221        0.99526025492834        0.18551162834304
H           -5.26718232913766        1.27659935466474        1.24176042874508
C           -5.81208446551438        2.22279021229423       -0.65028676296209
C           -6.47181493937965       -0.07128508340760        0.11112333507552
H           -4.95342090647827        2.89570053187784       -0.66254939158680
H           -5.96456042360442        1.86667332680716       -1.67018286677745
C           -7.05476113013026        2.98666730792191       -0.18329930997792
O           -7.51273882917660        0.06353414095355        1.01347453453770
H           -7.90203054394940        2.29611935758398       -0.10524949766611
C           -6.83410147203117        3.66994060314901        1.16643599149985
C           -7.41718638845427        4.03790189316744       -1.23186354665928
H           -6.01978112742794        4.38741023664846        1.09146707551331
H           -7.73202769498616        4.20376669696388        1.47046982108946
H           -6.58318252737769        2.96152153770657        1.95415772504736
H           -7.62471585761685        3.56661329214412       -2.18908495256122
H           -8.30000586650591        4.59423240423406       -0.92533411128790
H           -6.59668718332331        4.73959666648456       -1.36433480266775
N           -6.38158363085049       -0.98760702191236       -0.73137125035039
H           -8.82618507199117       -0.43532090358255       -0.11768575183477
C           -7.27775419568680       -2.09686273862459       -0.92214380536927
H           -6.77652960725963       -2.75143939413706       -1.64516947479355
C           -7.56901656181340       -2.89142507112762        0.35854691131849
C           -8.61188348351876       -1.68401636946218       -1.56087916825179
H           -8.14287184526679       -2.30230501071196        1.07052341850650
H           -8.12870221097090       -3.78953718898755        0.10969573963068
H           -6.62794605817898       -3.17303204161989        0.82542539303963
O           -9.29445716677989       -0.73573479095102       -0.91981694195488
O           -9.03149292377280       -2.19724665785948       -2.55890759007499
