42
 energy: -62.486133508801 gnorm: 0.000480209354 xtb: 6.7.1 (edcfbbe)
N           -1.03522561825486       -0.57030484538402       -0.92229844757945
H           -0.38468896471782       -1.19918391173514       -1.37752104963426
H           -0.67714448587606       -0.38335412934433        0.01055736309467
H           -2.01879800387115        1.04774678487673       -1.29136957669749
C           -2.36480204839558       -1.17199078570881       -0.82938265054007
H           -2.61378915494919       -1.56095203605078       -1.82548400237468
C           -2.48932952004307       -2.29805969450947        0.19333804226276
C           -3.35547178690903       -0.04404245357900       -0.55515749461145
H           -2.22039062081338       -1.93630387073438        1.18390280033268
H           -3.51711311103237       -2.64312641330339        0.22116730098178
H           -1.83584916246896       -3.12722389570104       -0.07069450876713
O           -2.93330700292665        1.16608236670358       -0.96331428659428
N           -4.44251669345398       -0.32744385299031        0.00061286559002
H           -6.49691150421683       -0.73415483479776        2.10229756388023
C           -5.53643388828709        0.57511514281164        0.28737976080406
H           -5.40560143953556        0.92894463866355        1.32087063854202
C           -5.67282787019200        1.77850373775528       -0.65544064174870
C           -6.74332546005561       -0.34036569661463        0.22985016750266
H           -4.82164611625591        2.43893558061542       -0.48753441901110
H           -5.61678234461564        1.40189464410833       -1.67729314597863
C           -6.96864847246895        2.58170941120434       -0.49983664977101
O           -7.10510213632758       -0.94685249118910        1.38421077329961
H           -7.79748347693514        1.97409889987093       -0.87884597312327
C           -7.25735152684445        2.95939080008453        0.95138742164999
C           -6.87886717128493        3.84096259413134       -1.36075909809582
H           -6.39850321415309        3.46291194630551        1.39124779819328
H           -8.10890171749123        3.63471799251928        0.99964724954287
H           -7.49649706405881        2.08405086427734        1.55080908302042
H           -6.66647041481135        3.58114786143460       -2.39482266292901
H           -7.81569202766031        4.39273703435795       -1.33020260658328
H           -6.08533269833135        4.49177266620579       -1.00012103801828
N           -7.30136009382423       -0.57884772011035       -0.87334833457293
H           -9.14025351953592        0.57507281945560       -0.25889243768142
C           -8.36789250006756       -1.55608655774711       -0.97299013657684
H           -8.79153801113450       -1.42716992236997       -1.98113355434416
C           -7.86106497076990       -2.98894763762230       -0.82405418414435
C           -9.51251818793725       -1.28751456250112        0.01146179430844
H           -7.43455820558801       -3.12736065611280        0.16538015297857
H           -8.69161844185379       -3.67829644499003       -0.94439284952548
H           -7.10132207293154       -3.19130287768725       -1.57427439269869
O           -9.77475017203352        0.01367792249544        0.21437051583963
O          -10.16851037267563       -2.14261424245493        0.52960794799364
