42
 energy: -62.486133509185 gnorm: 0.000480395871 xtb: 6.7.1 (edcfbbe)
N           -1.61418372612460       -0.68558212614110       -2.07279598337281
H           -0.80954759287448       -1.24638165317765       -2.32498099848813
H           -1.30967371900439        0.28264745694154       -2.02453439892343
H           -3.46161512872631       -0.42443843279475       -2.57715930769408
C           -2.16085179590428       -1.09941424002464       -0.78247924448508
H           -2.24027947801757       -2.19469577613394       -0.80157640285603
C           -1.33517081662193       -0.67586421809852        0.43032957000331
C           -3.58198974113495       -0.55691866957445       -0.70663256743054
H           -1.21402318091899        0.40565303584077        0.44026595618294
H           -1.84954179349712       -0.96786830135672        1.33953637770530
H           -0.35259611891363       -1.14267819850291        0.40402403466327
O           -4.14222876468461       -0.27541454138294       -1.88929902697801
N           -4.14236140775539       -0.43821832419167        0.41751593760230
H           -5.22158298351601       -2.31424134487497        0.43784910819199
C           -5.51072463709999        0.04564133698365        0.51663894516699
H           -5.72164827423173        0.05763605506592        1.59603157012400
C           -5.70732807851824        1.45776223709315       -0.04976797493590
C           -6.45413539614319       -0.96538629417851       -0.10132887376567
H           -4.79237269125117        2.02572579947867        0.13552902204312
H           -5.84386606681315        1.37756420646659       -1.12813751730485
C           -6.89550499698482        2.20108430581755        0.57195162574069
O           -6.09171127387747       -2.26062747514290        0.01496073504108
H           -7.73114699932858        1.50127317359462        0.66067802741321
C           -6.55017809330477        2.73308632646457        1.96172689637173
C           -7.31597370306672        3.35699534998965       -0.33388145880823
H           -5.74303746391142        3.46086233050833        1.89873267072790
H           -7.41524972435734        3.22053184969308        2.40513773783150
H           -6.23596324117332        1.93234612693054        2.62683551157655
H           -7.62008514888773        2.99588022159823       -1.31307496966357
H           -8.15177121638922        3.89759858776618        0.10371308933086
H           -6.49022306289934        4.05362878703111       -0.46489691338525
N           -7.53096917569403       -0.59213858880274       -0.63190081527839
H           -8.42515824635338        0.72162744032355       -1.50082541071857
C           -8.47004937664946       -1.52718859350966       -1.20599715515222
H           -7.96643045931717       -2.34843964489819       -1.73174596596624
C           -9.39422819304241       -2.11659139612858       -0.13514826951186
C           -9.32652311070004       -0.74678708078132       -2.21482937026146
H           -9.86363879977920       -1.31488739860328        0.43151973349615
H          -10.16519497751050       -2.71254107246002       -0.61512946851523
H           -8.82157504280259       -2.74305610232793        0.54420976338184
O           -9.12729032653647        0.56497873778116       -2.17652436408097
O          -10.10856724224350       -1.27518958914268       -2.95560470751627
