42
 energy: -62.486133506009 gnorm: 0.000480566119 xtb: 6.7.1 (edcfbbe)
N           -1.94290431800392       -2.35985676621224       -0.07147975182313
H           -1.19860710609410       -2.43578464719179        0.60894318668018
H           -1.68365419223976       -2.89038522917956       -0.89298982688570
H           -3.67931956865044       -2.47058525069522        0.48991767006598
C           -2.24420518323735       -0.96632946532521       -0.41302428412599
H           -1.55875688140465       -0.27278641122060        0.08492846883516
C           -2.19346794286318       -0.72008318461553       -1.91906460386970
C           -3.66137929747206       -0.66055289065833        0.08077952429044
H           -2.88566116435397       -1.38767257203299       -2.42886699667670
H           -2.48902651451061        0.30426494177678       -2.12123454072475
H           -1.18770878535833       -0.88637602041825       -2.30136124034524
O           -4.31626632023199       -1.72057065099557        0.57025951364411
N           -4.05279886606167        0.53021603009348        0.01791137613017
H           -6.69062089770238        0.53521707293489        2.32345158609218
C           -5.38305295251770        1.00509153714400        0.30132756420532
H           -5.30504292158520        1.60656482504624        1.21982249554745
C           -5.78101791716504        1.92236101893108       -0.86919646042823
C           -6.44653076229531       -0.05414162729471        0.47893766735197
H           -4.96529148171724        2.62761201153152       -1.03151982311824
H           -5.86546853613779        1.28333461048925       -1.74850837034835
C           -7.09723642638990        2.67727840900272       -0.65998768037721
O           -7.09847255387157       -0.07678825451429        1.69957886619158
H           -7.86949070139030        1.96482627097897       -0.34860189463687
C           -6.96864962096997        3.76503893317330        0.40487998381609
C           -7.53793499559648        3.29969452673593       -1.98334563812732
H           -6.20241972282373        4.48252754071669        0.11883937537802
H           -7.91140823087177        4.29601491677853        0.51535071689283
H           -6.70320159045253        3.35168846512328        1.37525080154877
H           -7.69040051404841        2.52852539092718       -2.73391172678220
H           -8.47117724755935        3.84333793929631       -1.85729968857734
H           -6.78155926162443        3.99215471746113       -2.34673670094246
N           -6.69433349743590       -0.83055550685907       -0.46851527472118
H           -8.75424030299306       -0.38190028028854        1.00616496272165
C           -7.64784337216209       -1.90796253671415       -0.48629199911620
H           -7.44201498457591       -2.46033363825484       -1.41059012630576
C           -7.54917706290315       -2.86890360362155        0.70650508575454
C           -9.09025695490746       -1.39385274914590       -0.59172580191400
H           -7.87889161830175       -2.39733821281784        1.62962767322099
H           -8.16385590015070       -3.74549301758045        0.51805029145310
H           -6.51263359936532       -3.17340797415261        0.82820570231121
O           -9.47129237488445       -0.54601333011946        0.36507900707564
O           -9.83891911133254       -1.74010089867187       -1.46062403813321
