42
 energy: -62.486133506314 gnorm: 0.000481222995 xtb: 6.7.1 (edcfbbe)
N           -2.34326540544847       -2.45581239738328        0.92532235458137
H           -1.95205104673885       -2.58591997847811        1.84829004311682
H           -1.78423104800227       -2.97910145491865        0.26321616024630
H           -4.16747807509396       -2.51641448217906        0.70474613923897
C           -2.42946647660614       -1.04154371534718        0.55285096596374
H           -2.04735828085597       -0.39653793431279        1.35072808109590
C           -1.67301151978604       -0.73091876448673       -0.73693636654282
C           -3.91232911821395       -0.70304416577023        0.36732249472471
H           -2.03984733356466       -1.35868229816351       -1.54713846666957
H           -1.83160328630283        0.30999044605808       -1.00093477888702
H           -0.60696058630045       -0.90732265546268       -0.60757072316061
O           -4.74068569162305       -1.74564545731612        0.47922152442458
N           -4.21723749228076        0.48992944184757        0.11965688643194
H           -5.78863356049770       -0.03764001399463       -2.25787816416464
C           -5.56402117292493        0.98387694396792       -0.07074253519725
H           -5.89853105483665        1.35032182992348        0.90702284117089
C           -5.49077457448111        2.16481534835195       -1.05113212194435
C           -6.56329298213266       -0.06316250378443       -0.50947653958768
H           -4.85150785568136        2.92245499319449       -0.59621697782399
H           -4.98905475127497        1.84379875500476       -1.96998266854588
C           -6.85270197914059        2.77693593705199       -1.39948695564789
O           -6.49863108679773       -0.49269653913880       -1.78788478808260
H           -7.47909301359164        2.01325986666003       -1.87481317697433
C           -7.57964224203706        3.28184292445697       -0.15544883156962
C           -6.65376053112494        3.92029546065088       -2.39372271423979
H           -6.94506095729264        3.96491989040104        0.40495393972582
H           -8.48444955991984        3.81235985607367       -0.44265896297791
H           -7.86502275354648        2.45647395769679        0.49127359802942
H           -6.14084797245628        3.57432958047572       -3.28881736538735
H           -7.61297839627016        4.33696434575464       -2.69074580046526
H           -6.06028897805956        4.71276770857062       -1.94313409102785
N           -7.38052965501791       -0.51926493044733        0.33232462436585
H           -8.11632443989194       -0.49116894569340        1.97570722859153
C           -8.35001127909688       -1.53629109736358       -0.00812997572626
H           -8.88065176154990       -1.29271752362299       -0.93718139005816
C           -7.71153952610229       -2.92202981342811       -0.15144596118534
C           -9.36261360517144       -1.59285663614313        1.14432552492315
H           -7.14009974223494       -3.15649493306949        0.74361285282608
H           -8.49302647872714       -3.66430594338270       -0.28723838469859
H           -7.04310838911619       -2.93291832037741       -1.00771336398184
O           -8.97337751946615       -0.91646938853862        2.21865441998238
O          -10.39109003073855       -2.20840336264314        1.08613678267704
