42
 energy: -62.486133484093 gnorm: 0.000484000461 xtb: 6.7.1 (edcfbbe)
N           -0.91803300831063       -0.66957090881575       -0.03114137770236
H           -0.08115935384210       -0.91282620959274       -0.54736720054266
H           -0.99668561335696       -1.32208511750784        0.74461131615788
H           -1.82508683352318        0.86939331711236        0.71651297338667
C           -2.10342820737501       -0.77408544185151       -0.88369319720242
H           -1.87512533002767       -0.25337126256547       -1.82277363960470
C           -2.55021001966124       -2.20016776104728       -1.19452715097850
C           -3.21635476136526        0.01527877048471       -0.21222949946369
H           -2.71560152585670       -2.75001776694349       -0.26970838745206
H           -3.48649145799364       -2.16540919319763       -1.74113070148376
H           -1.79736043638891       -2.71802991855806       -1.78534595556139
O           -2.79639422978314        0.96233660063216        0.65494145632919
N           -4.41250383796466       -0.23284208301599       -0.49828765635397
H           -6.93261036813699        0.29833146359054        2.01562931961414
C           -5.48823668412451        0.53415648012590        0.07405948491178
H           -5.21408543533256        0.92985171531368        1.06643124892811
C           -5.82091763024151        1.70062773139369       -0.87629366523772
C           -6.69661195330665       -0.36252354365760        0.19183761315227
H           -4.92421199765808        2.31407608120590       -0.98543507661990
H           -6.05154092401942        1.24998000490343       -1.84237785983340
C           -6.99237099546689        2.57707159962451       -0.42182743722730
O           -7.37606006759028       -0.29932311592793        1.40126820858877
H           -7.84012277665021        1.93409337509564       -0.15993873791913
C           -6.62324317562905        3.43500808491076        0.78751501193975
C           -7.42923385983963        3.47543957411315       -1.57740806277695
H           -5.80206560047103        4.10290416588665        0.53581884026587
H           -7.47390454128079        4.03893716440546        1.09534170073988
H           -6.31591824354696        2.82964022437779        1.63755233833480
H           -7.74935838529445        2.87570970696557       -2.42554033669012
H           -8.25897998311173        4.10931916969477       -1.27372930088912
H           -6.60662749330998        4.11288920304812       -1.89478953202739
N           -7.03235744528512       -1.08261010394933       -0.76866430048783
H           -9.03881761450941       -0.37915649642204        0.70173987167563
C           -8.13620920835698       -2.00234933131827       -0.83686121117237
H           -8.00460775146474       -2.54318247056909       -1.78115434540675
C           -8.19053005223516       -3.01364002841748        0.31675333822645
C           -9.49390767350995       -1.28841620506547       -0.92898676546518
H           -8.37767794396733       -2.52286033412856        1.26945419323709
H           -8.98143043032487       -3.73570376530440        0.12950824869769
H           -7.23917458021341       -3.53711638549756        0.37784919792005
O           -9.76570269792380       -0.42735562341949        0.05201324665715
O          -10.27524112740067       -1.50442701327604       -1.81069105450386
