42
 energy: -62.486133519084 gnorm: 0.000478739004 xtb: 6.7.1 (edcfbbe)
N           -1.19583739727366       -0.61907046523338        0.71297504368282
H           -0.28712418212021       -0.96083151176151        0.42475976910571
H           -1.43442543254537       -1.08482376307036        1.58450900462543
H           -2.16734943973733        1.01961233906737        0.97283072980297
C           -2.21102218815687       -0.91457973024071       -0.29748675728458
H           -1.79365635098546       -0.62982077423967       -1.27217753298996
C           -2.65704432808015       -2.37415871049066       -0.34594280333514
C           -3.38794812786208        0.01444568213981       -0.03672126044718
H           -3.03942176736323       -2.67932188360922        0.62589860163996
H           -3.45403680082635       -2.48385320323308       -1.07311836762538
H           -1.82428992991827       -3.01917238485662       -0.61920891155424
O           -3.10106070246587        1.10578096609919        0.69168177602502
N           -4.52020314211902       -0.27103413761549       -0.50294412778749
H           -6.41057712886791        0.02151271623440       -2.51290675115290
C           -5.65487536079404        0.60945135878007       -0.29248817859676
H           -5.73928910523487        0.85595202848076        0.77275175584834
C           -5.53528152888533        1.90885337021571       -1.10264682911203
C           -6.86126972310693       -0.21627218673693       -0.67789546756867
H           -4.72048878989675        2.49165814830660       -0.66969562923642
H           -5.24583073829934        1.67146542434318       -2.13264099387636
C           -6.81593273078862        2.75229172432778       -1.11067859217504
O           -7.10168407829109       -0.40190978314812       -1.98875528840652
H           -7.62866563483119        2.16870486761286       -1.55818053192137
C           -7.23561366360865        3.15006422785199        0.30232324112425
C           -6.59376550170391        3.99913073074581       -1.96574172324066
H           -6.41383456225144        3.64160144785984        0.81861320479809
H           -8.07651909504013        3.83846242855515        0.26165012848153
H           -7.54066360838088        2.28005710503138        0.87780439361868
H           -6.30444188019279        3.73033710722169       -2.97971612894568
H           -7.50422801056149        4.59104524944344       -2.01719635596163
H           -5.80737777239743        4.61621585074327       -1.53641909893902
N           -7.52588408511009       -0.77929835362120        0.23159531151072
H           -8.02198118760568       -0.88737103449318        1.96788918901247
C           -8.63890597427270       -1.65364852222319       -0.06675703963927
H           -9.27540809356742       -1.25176524636901       -0.86491118699842
C           -8.15798241680096       -3.05138958322670       -0.47237354154352
C           -9.47177727881560       -1.78267154371657        1.21665392941101
H           -7.49105277611289       -3.44820713197993        0.29029015996303
H           -9.01518087513494       -3.71050048448370       -0.57692123530481
H           -7.62254915920854       -2.99761041506028       -1.41665050949737
O           -8.87195030100697       -1.27353165600718        2.28662294436348
O          -10.54976040252255       -2.30782610243739        1.25026069511541
