42
 energy: -62.486132532986 gnorm: 0.000658787363 xtb: 6.7.1 (edcfbbe)
N           -2.26703983857945       -1.80846515905693       -0.71859325203437
H           -1.69155651407527       -2.60592576251745       -0.47699348443599
H           -1.64298025454626       -1.04853847237122       -0.97641710007881
H           -3.80851532786463       -1.37073872495057       -1.78431884632611
C           -3.10018822187394       -1.40312711122491        0.41356153332139
H           -3.55011724405723       -2.31211500133971        0.83223349569680
C           -2.35970680771203       -0.65533539461146        1.51945953880373
C           -4.24923338040136       -0.57664120513105       -0.14020324078159
H           -1.87201783591811        0.22872190982366        1.11288430104876
H           -3.07299003425095       -0.33831334620282        2.27216187788588
H           -1.60814336644513       -1.29563314753951        1.97654096231051
O           -4.48813621826017       -0.74827566607716       -1.45417103093045
N           -4.92350595663507        0.15049488810981        0.63315053296574
H           -7.32051779958773        0.90300916030251       -2.02772067899475
C           -6.05361662218726        0.90759279603330        0.12393678010549
H           -6.48108357230744        1.39413313849173        1.01065149886126
C           -5.63003615945464        1.98432267451876       -0.88430302166366
C           -7.09556898118130       -0.07272166031283       -0.39036369572763
H           -4.67749953927681        2.39171103370469       -0.53714284616847
H           -5.43325853792417        1.51916077053207       -1.85514185881090
C           -6.63809077752603        3.13733715846202       -1.02062025762755
O           -7.68494033415290        0.12715530553554       -1.58358671246118
H           -7.66130273238914        2.74311055846216       -0.98830412625799
C           -6.48531962640836        4.12778797378573        0.13206815153101
C           -6.43648550273228        3.85682985314452       -2.35435432696430
H           -5.50229246594184        4.59303198293939        0.10249785110411
H           -7.23705057003659        4.91054393336842        0.06201255938011
H           -6.59988769081962        3.63057994474505        1.09187349900416
H           -6.59757322897635        3.18633553419283       -3.19703161372661
H           -7.13123804647003        4.68822568902680       -2.44637182452036
H           -5.42406600063664        4.24970447482974       -2.42016312035055
N           -7.35923224387463       -1.06266163763622        0.34201422593591
H           -7.20332773284754       -1.88355202226702        1.93150686805598
C           -8.28745175922359       -2.09723638433170       -0.04595650534569
H           -9.24034676413177       -1.68186366762509       -0.39783314831196
C           -7.70853886502027       -3.00429327347126       -1.13792438445560
C           -8.54781421310524       -2.95174408438990        1.20477674884378
H           -6.74278624674275       -3.39275715905600       -0.81986547170736
H           -8.38724951443821       -3.83434436197720       -1.31211454220500
H           -7.57744372729152       -2.44117804828866       -2.05818515420507
O           -7.75718272480980       -2.64761237505656        2.22568541408273
O           -9.37096901903074       -3.82450535435209        1.24109690022074
