42
 energy: -62.486133506040 gnorm: 0.000480449396 xtb: 6.7.1 (edcfbbe)
N           -1.45951443764559       -1.73767900248085        0.30034307305749
H           -0.55934872112625       -1.29744026900095        0.43845553683643
H           -1.30267018486314       -2.69821264894719        0.02140410872264
H           -2.82229808385422       -1.36802248338473        1.49870864840779
C           -2.27227364383584       -1.02686243580295       -0.69315841429414
H           -1.71599022751485       -0.20875612822702       -1.16224108121892
C           -2.79823288074053       -1.95743982551212       -1.78351460812036
C           -3.46661756759731       -0.41993415272911        0.03379654520819
H           -3.34641456845548       -2.78408803400657       -1.33623670875712
H           -3.47752794720283       -1.40231716427979       -2.42184570620477
H           -1.97829576101763       -2.35280685030855       -2.38036685280205
O           -3.60729652463836       -0.80135257639579        1.31547687717830
N           -4.23785890856380        0.34871052595493       -0.59265271583346
H           -7.05585724246630        0.48297879936170        1.80904462707995
C           -5.40370835091730        0.88576704077679        0.07017843102825
H           -5.17588736799070        1.13356074547240        1.11974768225363
C           -5.83536061715719        2.13921507822361       -0.70893157850901
C           -6.51368958219421       -0.13754822413713        0.04077482289180
H           -4.98000545115951        2.81567752214907       -0.74847954497087
H           -6.04577418824903        1.80806804729791       -1.72614963205396
C           -7.05073280708036        2.87750238531572       -0.13932228272122
O           -7.36333241668616       -0.13513559195279        1.13498495766685
H           -7.86330536402505        2.16193990769369        0.02891162358453
C           -6.72166573840719        3.57970915331642        1.17801134745000
C           -7.54395386512659        3.90373521708068       -1.15787656097389
H           -5.95148402756503        4.33120301889958        1.01766354241558
H           -7.60532111410600        4.07585318374277        1.57348969341360
H           -6.36014999789481        2.88469739986642        1.93332144690323
H           -7.83453144724275        3.41273070069298       -2.08294989124832
H           -8.40592740242793        4.44169333920753       -0.77014556237505
H           -6.75989906305058        4.62399209461392       -1.38100307531556
N           -6.62557574699440       -0.90524214916595       -0.93682452478544
H           -8.88754266569122       -0.40287714393077        0.20555791443815
C           -7.59996579866797       -1.94719013870426       -1.12631669136764
H           -7.27440988798039       -2.48606071883310       -2.02384841450505
C           -7.70295896265580       -2.93590702246447        0.04362016212690
C           -9.00332112729462       -1.40137793488830       -1.43161885998297
H           -8.09144484694126       -2.45572077542949        0.93909745085122
H           -8.36108740598303       -3.75621075522312       -0.23178784975862
H           -6.71503888682571       -3.33283284266154        0.26654886522547
O           -9.50668716657287       -0.55533719330423       -0.53332515199958
O           -9.62323325645868       -1.73270827784157       -2.40160657971918
