42
 energy: -62.486133517856 gnorm: 0.000479471432 xtb: 6.7.1 (edcfbbe)
N           -2.06425538030205       -0.88463206459356        1.62336401316856
H           -1.13507309845093       -1.28422141074757        1.56573714370742
H           -2.60198152575671       -1.46074294992497        2.26619879376080
H           -2.97202692724980        0.81054584106903        1.85217658739772
C           -2.71265003153589       -0.88649577863332        0.31149758991761
H           -2.00571014662469       -0.43535360976641       -0.39817934097293
C           -3.12887356277817       -2.26442654906389       -0.19703966846517
C           -3.90007547002862        0.05828608359260        0.40617595453010
H           -3.75097780713253       -2.76704478312326        0.54011260465142
H           -3.70454029923792       -2.14932044872362       -1.10872993289325
H           -2.25164161458147       -2.87672113013628       -0.39602844499828
O           -3.78449400187388        1.01498185364861        1.34756325102535
N           -4.88249743289329       -0.09149337190429       -0.36278733977986
H           -8.24165619669959        1.33219349685366       -1.24915214858426
C           -6.01349728830837        0.80556570946305       -0.30290236524377
H           -6.04479144503873        1.33882588937115        0.66092833149551
C           -5.92961527484336        1.83277664529846       -1.44870377179451
C           -7.25279598617934       -0.06439000235257       -0.37535791451258
H           -4.87599969897395        1.95534023837335       -1.70707909080598
H           -6.41950484228570        1.42548653227741       -2.33769881401144
C           -6.50764950725724        3.21040154202267       -1.08690010702749
O           -8.38337033235147        0.43779859766973       -0.91362618127433
H           -7.42558136167152        3.08640191439958       -0.49671724002293
C           -5.50943658266414        3.99717265675785       -0.23934675855551
C           -6.85120193639896        3.99069830050288       -2.35498274785216
H           -4.62696477745283        4.23788941854099       -0.82829505524675
H           -5.95280702085074        4.92644262256289        0.11074893443120
H           -5.19244682855659        3.41958220045244        0.62550544972864
H           -7.60641974687216        3.47483443819987       -2.94557277032985
H           -7.23282235830550        4.97701210236693       -2.10189914837854
H           -5.96355108198770        4.11563667719808       -2.97107305145535
N           -7.17454270786885       -1.21062119433117        0.13235078004152
H           -6.11573487116592       -2.38800000768807        0.85967506742720
C           -8.23877823806634       -2.17856505434443        0.18568115507751
H           -9.12482547616151       -1.77812751907209        0.69413474654087
C           -8.64907731383631       -2.69349460000929       -1.19780997566881
C           -7.68818042889742       -3.36164613680069        1.00502590303315
H           -7.76992758873885       -3.04190723716478       -1.73615492699188
H           -9.34585912930762       -3.51866114856404       -1.07984362673021
H           -9.12199945929980       -1.89760766477034       -1.76689514858903
O           -6.38871005906769       -3.25918473689483        1.25378749416466
O           -8.36364646804030       -4.28724134022443        1.36104722485492
