42
 energy: -62.486133514181 gnorm: 0.000479785833 xtb: 6.7.1 (edcfbbe)
N           -1.06035113158166       -0.57658854339768        0.13367277537172
H           -0.28986948624822       -1.16591415936424       -0.15720856967678
H           -1.04769401666163       -0.53737890204956        1.14938786664032
H           -1.85173694871040        1.12039597973814       -0.26548995261397
C           -2.33787593235368       -1.12450615511576       -0.32089727843518
H           -2.22078734773017       -1.38086445800911       -1.38219558309196
C           -2.81568267015717       -2.35560161621047        0.44427761027958
C           -3.36130919130089        0.00549003277688       -0.25668860269652
H           -2.89502148521482       -2.12792040025022        1.50521809311358
H           -3.79774324155120       -2.64311024771902        0.08508554254349
H           -2.12148600738157       -3.18252753928707        0.30864623733544
O           -2.82350603722119        1.23983175208192       -0.28950732298873
N           -4.57768932787084       -0.29036927673532       -0.18901485616502
H           -6.38133522836324        0.20075920264402       -2.45035045015603
C           -5.68561534887665        0.63836862210366       -0.15292662562168
H           -5.87296542606018        0.86417981147072        0.90324876921186
C           -5.51807563793718        1.94818396191943       -0.93697519546058
C           -6.85908906625147       -0.19050751264950       -0.64039608649617
H           -4.74099502912378        2.53941872505096       -0.45191279560008
H           -5.15629892164363        1.72729974551520       -1.94794444094468
C           -6.80256804818460        2.78357190839061       -1.01985949470874
O           -7.03997925590170       -0.31592546108344       -1.96971543749651
H           -7.59703714734437        2.19127128781714       -1.48818020522422
C           -7.28271032141727        3.20993707140601        0.36555547701723
C           -6.54691188222994        4.01427533638183       -1.88918479637352
H           -6.48860868017995        3.72633041187379        0.90088932520622
H           -8.13008135353248        3.88568460190318        0.27509352955263
H           -7.59979130369075        2.35086666090437        0.95118784814677
H           -6.22278276219554        3.72689142633268       -2.88752693433672
H           -7.45271078991607        4.60820754330045       -1.98361560856662
H           -5.77338606288572        4.63643117236766       -1.44412300169816
N           -7.55655381769231       -0.80627468037164        0.20691159115481
H           -8.08879454461190       -1.05921534426577        1.91781352741738
C           -8.63176897499443       -1.69162459667244       -0.18201499231826
H           -9.25284692036518       -1.25975767445372       -0.97658948957695
C           -8.09886799367417       -3.04995200548072       -0.65175867953423
C           -9.50100392701443       -1.92082160028118        1.06315092344169
H           -7.44791709307285       -3.47444227579595        0.10975731413410
H           -8.93367773427468       -3.72312372921792       -0.82544610787383
H           -7.53344348605949       -2.92678152854771       -1.57170585370947
O           -8.93975613975193       -1.48193991279942        2.18351281899193
O          -10.56986553007034       -2.46427346378893        1.02675419563526
