42
 energy: -62.486133515364 gnorm: 0.000479057701 xtb: 6.7.1 (edcfbbe)
N           -1.56670411511329       -0.21847772517609        0.89913283144360
H           -0.73694269928532       -0.79729929065676        0.84131827607104
H           -1.76600893505946       -0.07279620448228        1.88527401211811
H           -2.32846014504973        1.37209723321498        0.06288318179733
C           -2.70620318809673       -0.88375214123098        0.26418635955624
H           -2.37816170985461       -1.18268497838661       -0.74100855912958
C           -3.23339738805620       -2.10787127135438        1.00480406004949
C           -3.78027882023261        0.17684090299780        0.07017914032451
H           -3.61150385477306       -1.82375194208365        1.98316371805188
H           -4.04665849845153       -2.55164592126748        0.44282878931492
H           -2.44085338812913       -2.84333927229030        1.12828677882324
O           -3.28893646465754        1.42213449989493       -0.11233236789742
N           -4.98779400824150       -0.15621061157214        0.10028460137235
H           -8.34197797548978        1.32533909612246       -0.93776621795830
C           -6.09840798845180        0.73456852930397       -0.12335172543474
H           -6.21267810329596        1.37700000760121        0.76383467548282
C           -5.98287399753389        1.62972718322955       -1.38033908055506
C           -7.33461926361340       -0.14343080299936       -0.20465420708281
H           -4.93288089556080        1.69613349784179       -1.66150010620655
H           -6.50194205723687        1.14166709560764       -2.21065630771721
C           -6.51302635209487        3.06005822573409       -1.18880517627850
O           -8.47880328959607        0.40760285791012       -0.67074039644853
H           -7.45166858833504        3.04444318809559       -0.61660496596011
C           -5.50922065775744        3.90606634609812       -0.40929638676247
C           -6.79439944932155        3.69797037381353       -2.54847195608237
H           -4.58607305898306        4.00644791041088       -0.97432261309293
H           -5.91160572091867        4.89884796426993       -0.22053796150945
H           -5.26835975100169        3.44479271207956        0.54485601945687
H           -7.55571141638141        3.14308369123118       -3.09374620026673
H           -7.14146604270087        4.72101165859664       -2.42449139273491
H           -5.88792400154565        3.71467899099182       -3.14898173358611
N           -7.26173089203870       -1.33045259079788        0.19414632451170
H           -6.29256497668595       -2.52927144337273        1.04524729582754
C           -8.36291021956219       -2.25848235997678        0.19165298122275
H           -9.25373494365479       -1.83442646546405        0.67340958018687
C           -8.73943633525530       -2.72234476053292       -1.21882871284940
C           -7.89540581417562       -3.47798440423990        1.00848715085798
H           -7.85451611035097       -3.08870112795808       -1.73513977318558
H           -9.46832486361210       -3.52470906307066       -1.14771703939965
H           -9.16381929090746       -1.89573461146849       -1.78268025131880
O           -6.62600748713165       -3.40337026574894        1.37989000641481
O           -8.61219850309171       -4.40580030040903        1.26704203455363
