42
 energy: -62.486133497723 gnorm: 0.000482987283 xtb: 6.7.1 (edcfbbe)
N           -1.34497234959884       -1.34303626051591        1.02360011034670
H           -0.35018610936043       -1.49306411013706        0.90478697239422
H           -1.77264465515084       -2.24802930922754        1.20212263207158
H           -2.56584328344296       -0.18294140838425        1.97841633185566
C           -1.93203373405410       -0.74130852350585       -0.17153656801084
H           -1.28927365753465        0.10024910039768       -0.46046535539003
C           -2.07809112019591       -1.69044170251398       -1.35991911757253
C           -3.27048112337597       -0.14535579657145        0.24197505618031
H           -2.74300707249033       -2.51379734895947       -1.10543607810686
H           -2.49593223880257       -1.15427018046193       -2.20603484440791
H           -1.10718516338898       -2.09390210042730       -1.64088307464551
O           -3.38205447355700        0.14005697138721        1.54628963044526
N           -4.15133537741638        0.07105041287469       -0.63065668929061
H           -5.25312902547542       -0.98020756083933       -1.93634100352785
C           -5.44423199648242        0.62387431849293       -0.27683550962739
H           -5.51799927177604        0.87359448373678        0.78570840485200
C           -5.68847616324098        1.87388599427317       -1.13977628376062
C           -6.46181908040936       -0.44325940209146       -0.60858295671529
H           -4.89930291633311        2.59419029394907       -0.91326356135249
H           -5.58188992812407        1.58588598149847       -2.18876437387712
C           -7.05660795135371        2.52915250479331       -0.92857279583250
O           -6.15331899986917       -1.22502205284685       -1.65483063957546
H           -7.83456809841359        1.77607130810952       -1.08885028709184
C           -7.20582414953093        3.08815011697697        0.48388451948424
C           -7.24613787295819        3.64665321619199       -1.95358668364706
H           -6.43017813742614        3.82509596872021        0.68343267445832
H           -8.17397728335188        3.57019891153133        0.59407672845775
H           -7.13592838486038        2.29978862259208        1.22775317466217
H           -7.18070641104159        3.25899662411332       -2.96776784741171
H           -8.22059537779705        4.11209944896155       -1.82856023896534
H           -6.48215464737794        4.41124161263831       -1.82759414887212
N           -7.51293372835922       -0.54302217246780        0.07800167641794
H           -8.74559767596080        0.29758851727920        1.10670433549446
C           -8.52932375704426       -1.52658394502912       -0.22514139400961
H           -8.66575856253546       -1.65902812044866       -1.30622396645402
C           -8.19600686112965       -2.88448578525679        0.40126207279819
C           -9.84777980312490       -1.01818936218735        0.37816054326909
H           -7.99806693582612       -2.76314504476583        1.46432375781265
H           -9.03885306858928       -3.55711798952998        0.26925792628805
H           -7.31634925312954       -3.30722852712566       -0.07795412605921
O           -9.70257500290499        0.05998292541087        1.13812473444284
O          -10.90306055745613       -1.55639645499140        0.18863126501825
