42
 energy: -62.486132301633 gnorm: 0.000620027324 xtb: 6.7.1 (edcfbbe)
N           -1.88080311667143       -0.37029394160942        1.54806603546237
H           -0.93758659946527       -0.72695510499162        1.45044526195415
H           -2.29661474013547       -0.83038588911816        2.35383949076117
H           -2.85976866989130        1.29031449991705        1.55520468140895
C           -2.67497660409819       -0.66591098051880        0.35465047647649
H           -2.08116317804373       -0.35003934704438       -0.51387325330304
C           -3.06784275187493       -2.13186745239076        0.19168367773501
C           -3.89593284463137        0.23940686695381        0.39788687749559
H           -3.60179943785485       -2.48006357845010        1.07265200602789
H           -3.72230478479399       -2.23396613909465       -0.66654817006420
H           -2.18273592208794       -2.74827486791010        0.04813236735633
O           -3.73333620326728        1.36603157834925        1.12079408945362
N           -4.94036513911378       -0.09002357604829       -0.21617561006994
H           -8.42612786163049        1.37911617237558       -0.64112462083242
C           -6.09732969677922        0.76907493084346       -0.23816100775961
H           -6.11096675415762        1.44478351106354        0.63336087886702
C           -6.11840646821854        1.60920508162445       -1.53776882026413
C           -7.32066729089380       -0.11498483105851       -0.14580782155443
H           -5.12857955252202        1.54616245452934       -1.99308520709648
H           -6.81746961994098        1.15729931838219       -2.24659571342136
C           -6.46848747309505        3.08822104300973       -1.31903924091683
O           -8.52421853107028        0.45021297480297       -0.39656642404639
H           -7.30380247385347        3.16944631189817       -0.60972739277940
C           -5.27540980544107        3.84011872705388       -0.73349610560534
C           -6.90001206087950        3.72678480697669       -2.63822935626209
H           -4.46598702383987        3.87734888777710       -1.45953969330355
H           -5.55387655864777        4.85964134666495       -0.47683113295858
H           -4.90503778403611        3.34716586147832        0.16157432940758
H           -7.78972519150845        3.24270368159128       -3.03657686076841
H           -7.12072151573805        4.78185523979356       -2.49433665598821
H           -6.10504719545807        3.64074013198310       -3.37542769680658
N           -7.17568753899753       -1.31158956346230        0.20167438331494
H           -6.04923155899061       -2.57005862714264        0.71748073752491
C           -8.25145349024240       -2.25512579220040        0.36294801621601
H           -9.05372377657070       -1.85712002510389        0.99731691661852
C           -8.85091917581290       -2.69324042069617       -0.97741440197330
C           -7.63535263912412       -3.48643212603999        1.05198516382728
H           -8.06009497855547       -3.03950291878735       -1.63978854970457
H           -9.55474270045789       -3.50322955152970       -0.80752298551781
H           -9.36587465570835       -1.85790654848890       -1.44491497519307
O           -6.31161358857143       -3.43982324092574        1.11725627607264
O           -8.29039430753762       -4.40086447986785        1.47053473245431
