42
 energy: -62.486133502105 gnorm: 0.000481260484 xtb: 6.7.1 (edcfbbe)
N           -0.76369790131139       -1.02137189393357       -0.72277411116880
H           -0.32547149097849       -1.80696762261506       -1.18822071372179
H           -0.35737555075670       -0.94749851299727        0.20511772758575
H           -1.11123746356037        0.81448511082456       -0.91037090653069
C           -2.21196663367806       -1.19228918384155       -0.62172948528253
H           -2.54963479321344       -1.63754106234122       -1.56563934812014
C           -2.63099756468065       -2.07862001801028        0.55362854500050
C           -2.85417780528363        0.21666592700951       -0.50762433517092
H           -2.26591108287487       -1.64378786065022        1.48291765105375
H           -3.71135444237088       -2.16302903411301        0.62165442631744
H           -2.21286154573833       -3.07865643847142        0.44365180065300
O           -1.98119344247378        1.22242913548827       -0.71937370368699
N           -4.03520756016747        0.43797342913689       -0.23768830803225
H           -4.64386248617420       -1.25368535216581       -1.06111518077308
C           -5.39272344902631        0.66791792317180        0.01300577327629
H           -5.52538875560161        0.74296465160095        1.09791888077353
C           -5.78862135964717        2.02189527408612       -0.63176306623076
C           -6.25686399458161       -0.48600474452159       -0.49129746982080
H           -5.08103093680184        2.75901991873432       -0.24403260144372
H           -5.60868905204130        1.93402181419543       -1.70568841090516
C           -7.21771756953926        2.51835376216742       -0.40577018903707
O           -5.58754901197569       -1.49854752103475       -1.06939410362081
H           -7.90317398019778        1.84415838894621       -0.92440930299534
C           -7.58181784671945        2.55589633167476        1.07556585037287
C           -7.36794135109639        3.91069308514043       -1.01751134845457
H           -6.88029458911784        3.18323210909249        1.62215169434619
H           -8.57975711629266        2.96769019447248        1.20149685622365
H           -7.56854804923444        1.55808972694337        1.50645019259572
H           -7.11083878644000        3.89908500326576       -2.07388702377008
H           -8.39490944918878        4.25193181474070       -0.91979067564901
H           -6.71855246431151        4.62287872737451       -0.51303350477113
N           -7.51008040312352       -0.42957924775137       -0.40763342993997
H           -9.09137717973328        0.39876164371351        0.13041293780091
C           -8.34956251377498       -1.49819483167241       -0.90694162125235
H           -8.06829579867369       -1.80482093699394       -1.92267078155966
C           -8.30857218128938       -2.72987191991908        0.00695068742013
C           -9.79463331701674       -0.98184123356118       -0.91865381666378
H           -8.56734223289587       -2.45088095534624        1.02687412027934
H           -9.02457150769333       -3.46329803144834       -0.35166483369543
H           -7.31296643427073       -3.16598040460396       -0.00004621588389
O           -9.97541199001718        0.11513362570387       -0.19275615329133
O          -10.68375470101780       -1.54087008094684       -1.49839669525644
