42
 energy: -62.486133503661 gnorm: 0.000481134259 xtb: 6.7.1 (edcfbbe)
N           -1.61214383716213       -1.19639348578667       -1.10438423563419
H           -0.96526973072445       -1.97541960470494       -1.12222387138388
H           -1.07598207722233       -0.35986062198750       -0.88940752976277
H           -3.03119210224851       -0.49333107645950       -2.15726793349202
C           -2.64545412001740       -1.39616318931508       -0.08748618805598
H           -3.01705828201231       -2.42332730965241       -0.19762740342512
C           -2.18247515924748       -1.17937750101753        1.34997566787644
C           -3.80684642750014       -0.47974660754956       -0.44356965438345
H           -1.77836404776047       -0.17565444587061        1.46608637806956
H           -3.03032503439991       -1.28533302026802        2.01780538227412
H           -1.41604739560998       -1.90405277723560        1.61695069835939
O           -3.84654377598815       -0.12922404343586       -1.75313547949396
N           -4.63881428460607       -0.16212789147246        0.43973365405056
H           -5.95247059572104        0.24108182797934       -2.20673595201915
C           -5.79224464076971        0.68437213859125        0.19090531360361
H           -6.20146133835699        0.87243729463360        1.18962995493183
C           -5.48327392099516        2.02273802115605       -0.48961409722364
C           -6.80755940800181       -0.16500958596525       -0.54384302787761
H           -4.79007742762035        2.56606152152184        0.15727019807503
H           -4.96955345782706        1.85845946252486       -1.43998798584222
C           -6.72907099755213        2.88296135612658       -0.73725287918597
O           -6.73735246495967       -0.22643252365487       -1.88647083965499
H           -7.44989720078455        2.30595599272822       -1.32770017394491
C           -7.40323502501604        3.29875923131045        0.56798221215244
C           -6.33274511047007        4.12230675750278       -1.53939062691128
H           -6.69237606639235        3.80214560628586        1.22006269968079
H           -8.22229157427460        3.98382583342106        0.36158566914191
H           -7.80947305780136        2.43807536904919        1.09230882227180
H           -5.87344747909247        3.84438263945964       -2.48591954165592
H           -7.20653495195903        4.73319344521004       -1.75203476206491
H           -5.62245512645468        4.72490475987873       -0.97691439086256
N           -7.59919234069798       -0.86962887445135        0.13757673789778
H           -8.42155431049730       -1.23597194568360        1.71226871195113
C           -8.52517560233505       -1.79163198362659       -0.48148655796061
H           -9.03405101702621       -1.34388816433126       -1.34426695422329
C           -7.82387203235626       -3.07792474252858       -0.93323372903925
C           -9.57543116137011       -2.15966088285299        0.57681481377106
H           -7.26919520137448       -3.50730919851819       -0.10113659980599
H           -8.56871545530577       -3.79171518803785       -1.27357904509156
H           -7.13421966937940       -2.85925417142047       -1.74462563517337
O           -9.26657005202501       -1.73752674438834        1.79647913900229
O          -10.56617830609241       -2.78772146231763        0.32479426326706
