42
 energy: -62.486133516212 gnorm: 0.000479448045 xtb: 6.7.1 (edcfbbe)
N           -2.35117874089444       -0.36341904994076       -1.92590348336537
H           -2.36802390008553        0.60005956310539       -2.24460633491128
H           -2.38287849803299       -0.96142755968477       -2.74400024516860
H           -1.40870077411138       -0.36970282320520       -0.23917698431773
C           -3.48897015090849       -0.63951487618121       -1.04802224013994
H           -4.43881353511905       -0.24226567886368       -1.42461883397582
C           -3.60864283190745       -2.15549085960531       -0.86417731831194
C           -3.15324857712725       -0.02695480326211        0.31593814218615
H           -2.64094584196844       -2.57278944317810       -0.59262945812979
H           -4.31944496229912       -2.39389915679599       -0.07851146736145
H           -3.94784730522208       -2.62130428279730       -1.78729024275381
O           -1.84931565160150       -0.08941910211801        0.59128775687413
N           -3.90698829192910        0.44614643963805        1.20936212669577
H           -5.69801628081010       -1.18337937640001        2.53699360267766
C           -5.32301311674978        0.71999566917547        1.13155636009147
H           -5.59502149712193        1.01167398523465        2.15737904234624
C           -5.61644607480282        1.90504054089145        0.20062047279288
C           -6.11443083321440       -0.52082494487902        0.78557145461372
H           -4.93418713504386        2.71223419818183        0.47422073849018
H           -5.39190285802252        1.60937828827603       -0.82424929144089
C           -7.06297841338132        2.40789215715858        0.27063960603720
O           -6.20384755372191       -1.45309278089605        1.75903600198310
H           -7.73362426353977        1.54811289028356        0.17489653644769
C           -7.35503319209214        3.11634007667694        1.59148003872003
C           -7.32597459071211        3.36067675232035       -0.89486824754585
H           -6.66994843556073        3.94919088167359        1.73417118480171
H           -8.37072937931696        3.50511559075747        1.59122988783199
H           -7.25630399992177        2.44105712449063        2.43723305346531
H           -7.17066488513565        2.86135873284868       -1.84850469489441
H           -8.34977534553154        3.72553387191110       -0.86437015077203
H           -6.65648597680718        4.21647979645847       -0.84137310792760
N           -6.56396356044259       -0.69705435428109       -0.37748758225280
H           -6.72912688558886       -0.19237708483379       -2.14760706168347
C           -7.22194297818906       -1.91705279201290       -0.78361856394288
H           -6.81240474523500       -2.80656883616094       -0.29060111575838
C           -8.72940332188459       -1.84324984750939       -0.51347841985380
C           -7.01808413062449       -2.02833649532094       -2.29964948512713
H           -9.15332283452969       -0.95983793671012       -0.98759511010943
H           -9.21343947636215       -2.72957871147196       -0.91398790231301
H           -8.90749147269739       -1.78961662959017        0.55788660614072
O           -6.78524239682230       -0.85097009482869       -2.87642451002982
O           -7.07838503467636       -3.05896621315629       -2.90739967794948
