42
 energy: -62.486133508854 gnorm: 0.000480627064 xtb: 6.7.1 (edcfbbe)
N           -1.98712340110767       -1.52158384641689        1.64540566239445
H           -1.68787842995927       -0.84661406055993        2.34091775667198
H           -1.20373371985776       -2.12927279566306        1.43822194709531
H           -3.85546059663503       -1.74906049161940        1.98890418084701
C           -2.46388770196614       -0.85145507851696        0.43795075977097
H           -1.85971172626708        0.01532570379619        0.13781350436518
C           -2.52042055073029       -1.85374179272121       -0.71573368404224
C           -3.88772062664008       -0.38169651406767        0.71011061663669
H           -3.11889246039538       -2.71661642139042       -0.43143273729170
H           -2.96818080670315       -1.38299733364620       -1.58550980490867
H           -1.51881831483975       -2.19130531233052       -0.97431810748914
O           -4.52443600514283       -1.12252937462066        1.63355785998305
N           -4.29564723698318        0.63436365505936        0.10284681518511
H           -7.78406528236485        2.03859878549551        0.67931916400027
C           -5.60951421097369        1.21157305235817        0.03962420685015
H           -5.59000092135391        2.09384499818941        0.69702989664344
C           -5.74419932351186        1.67621736266424       -1.43432166601516
C           -6.82182778072081        0.38320012284437        0.40143258350067
H           -4.79181806848456        2.14082313593305       -1.69424766182177
H           -5.84609074115485        0.77414799225908       -2.04106147517095
C           -6.88349494410353        2.64231810273931       -1.77449331606996
O           -7.94798217907918        1.08819980057083        0.69143777930612
H           -7.84376248926000        2.19588894238462       -1.49481427196667
C           -6.72341758017567        3.98993106270703       -1.07093293017203
C           -6.90829241207604        2.86141713712983       -3.28766557674740
H           -5.78543522542285        4.45479371539083       -1.36677596452376
H           -7.53707135040280        4.65742466683292       -1.34657603250421
H           -6.72190738556402        3.89697345450592        0.01385836314135
H           -7.05725248819514        1.91942558297652       -3.80980482264861
H           -7.71669143691734        3.53554382879477       -3.56125049280620
H           -5.96964024665033        3.29600031914133       -3.62405225426905
N           -6.79126149299631       -0.87075698989541        0.45739630573971
H           -5.80903366253653       -2.38780329889169        0.84647977919996
C           -7.97419244659754       -1.64671102181234        0.75039164675645
H           -8.48037943465816       -1.27566659704485        1.65243077882213
C           -8.97327286360821       -1.63712918559129       -0.41087305423047
C           -7.53287674702408       -3.09419061339536        1.01519349953130
H           -8.46835747239181       -1.91773817617558       -1.33313103084086
H           -9.76135853079006       -2.35587427426237       -0.20497277497288
H           -9.40594760230806       -0.64714117824898       -0.52773558034583
O           -6.22092708721752       -3.27561425480300        0.98539799445983
O           -8.31420832783675       -3.98253819089667        1.22291742241597
