42
 energy: -62.486133513179 gnorm: 0.000479188911 xtb: 6.7.1 (edcfbbe)
N           -2.10972001569411       -0.27794584452513       -1.61052929554485
H           -2.10640664995431        0.71091695861007       -1.83892642118102
H           -2.04593376982664       -0.79842859631745       -2.47814870308498
H           -1.34683660624071       -0.43987683759223        0.19046816513787
C           -3.32400615418812       -0.63849588525963       -0.87881031604946
H           -4.24439885444166       -0.24933122180237       -1.33395316753069
C           -3.41019612172397       -2.16573712750273       -0.80220684333132
C           -3.14285280773442       -0.08204811376789        0.53921322168570
H           -2.50085284494923       -2.57157326928047       -0.36313221675604
H           -4.25776061993350       -2.47859998574818       -0.20028196998212
H           -3.53051058689979       -2.57997998712949       -1.80133453152606
O           -1.88675815085173       -0.19583958077429        0.97080598022071
N           -3.99081702608626        0.41087625637657        1.33471558972186
H           -5.18214375337511       -1.43961258284284        2.10889197981843
C           -5.38333258798209        0.66055498226450        1.02581352696421
H           -5.81654710068777        0.97092314041445        1.98967370256831
C           -5.58597046288587        1.80684685377838        0.02607232256287
C           -6.08246912891275       -0.62061181268038        0.63480095089847
H           -4.83074292043165        2.56706362230401        0.23578082274225
H           -5.42135816092429        1.43527688606871       -0.98550347685824
C           -6.98208149989624        2.43874796980125        0.10347725731174
O           -5.83524326591377       -1.68065911151397        1.43526715728880
H           -7.71853144835091        1.63493831310533        0.19637321948675
C           -7.10746845352007        3.36716858805783        1.30926116347236
C           -7.26828500646464        3.21825373041676       -1.17931045732489
H           -6.40347245923560        4.19239712037367        1.22518102042706
H           -8.11225857875070        3.77922523308350        1.36463402318480
H           -6.90681894009534        2.84158209384078        2.23918482506836
H           -7.24379666120157        2.56583456925858       -2.04922122592097
H           -8.25063644923550        3.68139285668939       -1.13008640176234
H           -6.52789561436714        4.00376414332052       -1.31644401231110
N           -6.83259871453102       -0.66625052457571       -0.37336555620791
H           -7.39378054016865        0.07848704589852       -1.94102496578114
C           -7.48894320194055       -1.87648161929140       -0.80838255140131
H           -6.87744798971775       -2.77167894007153       -0.64078407495519
C           -8.83919486543124       -2.05708211153161       -0.10612645042668
C           -7.74841828745705       -1.71493223532490       -2.31365402970358
H           -9.45255409160491       -1.16832094106470       -0.24115141009403
H           -9.35459434771554       -2.91404282690849       -0.53052180582491
H           -8.68179345643796       -2.22084448681585        0.95723951831001
O           -7.66597635720377       -0.45350316061348       -2.72505281021986
O           -8.01478519330936       -2.63111926840106       -3.03886266875276
