42
 energy: -62.486133509320 gnorm: 0.000480443737 xtb: 6.7.1 (edcfbbe)
N           -0.75089240643267       -0.23886276183598       -0.28923557616545
H            0.04817534797108       -0.71210642532140       -0.69328054702719
H           -0.61654622986385       -0.21826255896874        0.71818346321571
H           -1.78763221539369        1.34437376864345       -0.52360509955886
C           -1.99388972574944       -0.93992872093288       -0.60710215589801
H           -1.97378079751137       -1.15949694243687       -1.68376311825776
C           -2.21012607961032       -2.23749410433316        0.16910657249356
C           -3.13703534255737        0.04945613414883       -0.38433184889074
H           -2.20416333224722       -2.03721578282835        1.23854393670169
H           -3.17317401869762       -2.66412874029480       -0.08968895944080
H           -1.42470063826941       -2.95404587089769       -0.06278774254161
O           -2.76277113690017        1.33744231424251       -0.42560341063841
N           -4.28841898444466       -0.40745754769672       -0.17878612322130
H           -5.32168898329522       -1.14475768624326       -1.84246997692696
C           -5.51745458201351        0.33540910110981       -0.02429119324939
H           -5.70102782347113        0.45931470739364        1.04728589296909
C           -5.57732157430512        1.70720179181975       -0.72373873436760
C           -6.60198663973295       -0.55727077676289       -0.59383296009852
H           -4.79757478015542        2.34374420568533       -0.30577499089203
H           -5.35265609609324        1.55893799432837       -1.78445496837302
C           -6.92683575669963        2.42155204161934       -0.59337787642223
O           -6.27881437181693       -1.23173994126188       -1.71059235221873
H           -7.71816192135297        1.76172457128977       -0.96246149946920
C           -7.23534816928486        2.78639336529638        0.85627429650672
C           -6.91178295577369        3.68349597579004       -1.45520529706956
H           -6.45581939022797        3.43073933349782        1.25794411175644
H           -8.18279135191987        3.31611795189750        0.91435453607369
H           -7.30860389048526        1.89851888196061        1.47789301129050
H           -6.72322488454174        3.43867686682971       -2.49822235682740
H           -7.86880035232224        4.19544135198884       -1.39286467683926
H           -6.13431659269482        4.36535652889759       -1.11660080966376
N           -7.71440681994695       -0.64855186207706       -0.01059291149736
H           -8.97044558832230        0.17685958880952        1.01259499419510
C           -8.78307644464996       -1.46906432877167       -0.53777740647923
H           -8.81419811124092       -1.45439548157930       -1.63457162326223
C           -8.64976448488703       -2.92033917518736       -0.06510837604877
C          -10.10526085948106       -0.90122312561600       -0.00034609876764
H           -8.57514867654099       -2.95126011946712        1.01982785952426
H           -9.52497676598359       -3.48173031762480       -0.37941753186405
H           -7.75716923841345       -3.36848209775276       -0.49439355530287
O           -9.94271571274454        0.04213413997922        0.91945493086904
O          -11.17986288076267       -1.28710208089904       -0.36824881428928
