42
 energy: -62.486133518572 gnorm: 0.000479056802 xtb: 6.7.1 (edcfbbe)
N           -2.64788845122394       -1.78930980586424        1.84700524196545
H           -1.76289578198700       -2.27308592342076        1.94336820871207
H           -3.38047340978872       -2.49611003724334        1.83570480529819
H           -3.67495242809086       -0.29723980598871        2.54831492216117
C           -2.68911164845950       -1.02894675206687        0.59868099201832
H           -1.80043556878728       -0.38209503523967        0.58325104217916
C           -2.71529255332415       -1.87631424206061       -0.67165228766898
C           -3.89451167797116       -0.11022494390024        0.69454028616358
H           -3.49434215165765       -2.63135783777808       -0.60217201038836
H           -2.92478434622280       -1.23888109641184       -1.52354994767048
H           -1.75779211155502       -2.37287035868595       -0.81483544565601
O           -4.24047802932992        0.23111114127590        1.94940270130361
N           -4.49643675250726        0.27200756930484       -0.34195163685454
H           -7.89054993265366        1.87457833322039        0.47024912445762
C           -5.64883134591291        1.13719244757257       -0.21888365127677
H           -5.51121438103935        1.87243245785501        0.58849071215461
C           -5.79828382488100        1.83751208178742       -1.58321066777997
C           -6.85478234698043        0.29061963077720        0.12517141809330
H           -4.83340268791967        2.29988822049777       -1.80061301746958
H           -5.95414762161882        1.05134596833813       -2.32381980256488
C           -6.89824486784321        2.89492536908204       -1.72233625387130
O           -8.00595688782595        0.91673407524164        0.45186709098155
H           -7.87741417494906        2.43293211512398       -1.55281754351029
C           -6.70708354743521        4.05942051631795       -0.74998715432723
C           -6.89232932285282        3.42669540137015       -3.15615579206421
H           -5.74486870625417        4.53575784985847       -0.92564589315507
H           -7.48693521104201        4.80390179349303       -0.89634888945031
H           -6.73773642358888        3.74406753890764        0.29172637332225
H           -7.05251859865577        2.61891328581364       -3.86591676216444
H           -7.68033678907964        4.16391344462922       -3.29212670033664
H           -5.93854831607770        3.89799513572889       -3.38236850097485
N           -6.72223686554648       -0.95815351360785        0.15904395067358
H           -5.55337394930746       -2.22682900064222        0.34435702104713
C           -7.74744687910759       -1.88055130006821        0.56875121527790
H           -8.36319908554269       -1.48695997476964        1.38787522743774
C           -8.65682174678044       -2.26946711710277       -0.60048134805719
C           -7.00490044818405       -3.13552335670870        1.06063372689885
H           -8.05453389572283       -2.61089755403415       -1.43987794958418
H           -9.32266392134392       -3.06917762700056       -0.28853460904391
H           -9.24437611051602       -1.40970564773910       -0.91294722806073
O           -5.70090660011156       -3.10029499864493        0.79830540541554
O           -7.54315187334659       -4.04997410836920        1.61842847376338
