42
 energy: -62.486133503603 gnorm: 0.000481043959 xtb: 6.7.1 (edcfbbe)
N           -2.65384311953560       -1.65896020295243        1.79268636063028
H           -1.77353526361925       -2.15399424900029        1.86977126963892
H           -3.39848145771131       -2.32313839288542        1.99584635951856
H           -3.61044508512523       -0.12229814156098        2.36245397957053
C           -2.83555832040121       -1.12234359158797        0.44515229552035
H           -1.92865565213372       -0.55918429596432        0.18804151597876
C           -3.10212260119533       -2.17698384003431       -0.62733922076465
C           -3.98541277258318       -0.13106614406151        0.52773473384280
H           -3.96593055194780       -2.77614222809140       -0.34714241757121
H           -3.31435324566776       -1.68706643811311       -1.57137066264880
H           -2.23982916541567       -2.83056110583286       -0.74204878812562
O           -4.22734331862819        0.34608560826036        1.76202245661230
N           -4.65124804990262        0.14988586867338       -0.50170961536073
H           -7.65999480068621        0.90211433142089       -2.07874591711423
C           -5.81049505765292        1.01754519628565       -0.40354034404476
H           -5.86196322285660        1.50656990285159        0.57835509401155
C           -5.74500844019122        2.06920122081538       -1.51320797332934
C           -6.98728432079675        0.05314350091379       -0.50193944710153
H           -4.73625540163083        2.48686779186079       -1.50290803831245
H           -5.85756875399755        1.57714791699463       -2.48451565076290
C           -6.75986392898032        3.21170753806012       -1.34677450374881
O           -7.89040830229121        0.17350001544991       -1.48736200654648
H           -7.71947003485275        2.80726219045882       -1.00176287187695
C           -6.27509527988500        4.21627860771145       -0.30314674198085
C           -6.98242887724540        3.91842007140403       -2.68369709243463
H           -5.34857192902827        4.68280067264099       -0.63101191658904
H           -7.01765728555388        4.99665269730182       -0.15347805758491
H           -6.09485316405378        3.73096699303844        0.65262809049968
H           -7.38827454360192        3.23848418939643       -3.43089851634430
H           -7.67891256043298        4.74499464826651       -2.56485440324814
H           -6.04204009339211        4.31572296883652       -3.05931472461643
N           -6.99976816919403       -0.84984523620711        0.37350353148690
H           -5.93987975814680       -1.56145623644775        1.54715109486756
C           -7.86579074382854       -1.99197667081973        0.47279958601142
H           -8.78682918173807       -1.70989546730013        1.00116550252585
C           -8.22855751911245       -2.67983627402073       -0.84343100121761
C           -7.11479698965478       -2.98935806294881        1.38493778032770
H           -7.32637341292910       -2.85741559161848       -1.42581324529981
H           -8.69890331141664       -3.63375027984675       -0.62021500330094
H           -8.90824514114898       -2.06500040520681       -1.42585631222529
O           -5.99435707805101       -2.49237155292093        1.89740788317453
O           -7.49978535676507       -4.10473333717366        1.59936211483604
