42
 energy: -62.486133510543 gnorm: 0.000479967104 xtb: 6.7.1 (edcfbbe)
N           -1.34573516224817       -0.62656465992265        0.77377025551286
H           -0.46652921159267       -1.06621218534114        0.52994014342195
H           -1.60459207919266       -0.95647072951720        1.70000767079875
H           -2.19990167909330        1.10000696034110        0.79381593120553
C           -2.39187683130562       -0.98365524743306       -0.18436294003375
H           -1.97489450837217       -0.83883009679872       -1.18960912177822
C           -2.91741378570906       -2.41106781659099       -0.05639803161671
C           -3.51183539851092        0.03447390427892       -0.02199467848045
H           -3.30711257669179       -2.57645274673686        0.94571327800669
H           -3.72654365075271       -2.56058145917946       -0.76277749063910
H           -2.12408114917980       -3.12933739571760       -0.25381528508557
O           -3.13581125760028        1.20390257218602        0.52658195026561
N           -4.67491937322253       -0.26293867867551       -0.39088747575759
H           -6.96394755109255        0.46977879170241       -2.43558791526714
C           -5.77995222656258        0.67167951104716       -0.27708703746420
H           -5.87644091752465        0.98096510333794        0.77121896362709
C           -5.59309836370309        1.91843614938153       -1.15203935782034
C           -7.00234278176170       -0.15519790282906       -0.62693251442739
H           -4.68990406825505        2.42559995847303       -0.80904296569830
H           -5.40455053522247        1.61170449844831       -2.18780621330181
C           -6.76750136599607        2.90550177114461       -1.09485350802251
O           -7.48281833912984       -0.12888749592938       -1.88388817917949
H           -7.70807440170858        2.37407756536191       -1.28028469132405
C           -6.86427591796116        3.57221373933331        0.27544736359772
C           -6.59276360748740        3.96747317258360       -2.18038768582239
H           -5.92892630374907        4.06989600063945        0.52216474745214
H           -7.65913136476591        4.31449226393094        0.27539257282356
H           -7.08486114353480        2.84391339402392        1.05129305922042
H           -6.55883143471427        3.51652364083253       -3.17047083662732
H           -7.41977352154277        4.67287869730841       -2.15771630126681
H           -5.66815785800920        4.51871860602314       -2.02316260692148
N           -7.46706136374525       -0.91397334814754        0.26417485733773
H           -7.50976178368822       -1.45864093277741        1.97369571361611
C           -8.56532973412275       -1.81995110225681        0.01541285762591
H           -9.40059126866950       -1.31878376590280       -0.48950328432501
C           -8.13354148043051       -3.02892949145636       -0.82246179399269
C           -9.04322702598128       -2.32967622478638        1.38376357210953
H           -7.27506364856022       -3.51066427808801       -0.35909731404739
H           -8.95517426182404       -3.73741164719582       -0.87885128086506
H           -7.86106632628829       -2.70776309837721       -1.82404347973202
O           -8.22372941339939       -2.00919233764968        2.37772971345637
O          -10.04504658308981       -2.97307948810604        1.53187445456874
