42
 energy: -62.486133505779 gnorm: 0.000480800664 xtb: 6.7.1 (edcfbbe)
N           -1.90904527608989       -0.11424375324755        0.70774076631083
H           -1.15246757833505       -0.56249240290110        1.21458215866054
H           -2.48137480442082        0.39240644348867        1.37520390053625
H           -3.74760927511405       -1.16686865545566       -2.16502984766742
C           -2.73749083810166       -1.11772901247230        0.05885164977198
H           -2.17827607302550       -1.48022687968939       -0.81774786049843
C           -3.08493105625420       -2.31516852104022        0.95784982751992
C           -4.01527129608502       -0.44413379630399       -0.39984693612512
H           -3.65729261871707       -1.97008612380511        1.81484617059222
H           -3.67094274018417       -3.05499630179008        0.41964167406586
H           -2.17029973340688       -2.78994690079747        1.30855054229594
O           -4.38730123540884       -0.62277747570851       -1.68818580933683
N           -4.66399984853056        0.21179976302682        0.45210824979515
H           -8.19672652486732        1.60439202712021       -0.08580871072186
C           -5.85652467832915        0.97265970938886        0.16821819187356
H           -5.98889146777559        1.61278401437417        1.05251151011735
C           -5.69534520471405        1.85870773780565       -1.08823964403622
C           -7.06217591736165        0.06255776893648        0.10034983331459
H           -4.66283674908842        2.21757531291231       -1.06578918961311
H           -5.80196193473720        1.22625075783478       -1.97102959002106
C           -6.61338763314501        3.08053591792099       -1.24124938753200
O           -8.27208309590890        0.64300836940143       -0.05559098238802
H           -7.63528391577466        2.75882833855098       -1.47887636214399
C           -6.63987792919827        3.96902438215489        0.00220694041038
C           -6.12148732849118        3.89615279771589       -2.43915091466983
H           -5.62646385056173        4.23729126557559        0.29214746417938
H           -7.18765226165072        4.88514621893161       -0.20832348258555
H           -7.12066502990461        3.48532146668568        0.85076508394762
H           -6.07985763189706        3.27831154939556       -3.33305570088596
H           -6.78961500924954        4.73255069606112       -2.63156818409131
H           -5.12585071223672        4.28929558454779       -2.24654269650330
N           -6.92577644583251       -1.17643291496780        0.26964768871076
H           -5.92066566690791       -2.52155511175506        0.85189476127544
C           -8.04789069737920       -2.08567846370745        0.24597532138859
H           -8.86266745291037       -1.73528817670021        0.89333544691821
C           -8.59761207636447       -2.29292872076449       -1.16875489987606
C           -7.54160116017824       -3.43307091872486        0.78428445742669
H           -7.78776613126058       -2.56338398568665       -1.84341454536581
H           -9.33070096878807       -3.09445379382213       -1.15151401964333
H           -9.06644825256471       -1.37947996370344       -1.52498137386726
O           -6.24097372428391       -3.43680181493021        1.04949387362693
O           -8.25109943071289       -4.38888212083233        0.93342961662074
