42
 energy: -62.486133515835 gnorm: 0.000479648449 xtb: 6.7.1 (edcfbbe)
N           -1.26906566960682       -0.48894627033209        0.59767212971869
H           -0.49418188100273       -1.08737160286312        0.33779417287403
H           -1.26420930715273       -0.40859869629099        1.61120846335698
H           -2.05240203233018        1.17665497775144        0.11012021723464
C           -2.54232587248641       -1.06516801321939        0.15824182962791
H           -2.41369004209519       -1.37381726620371       -0.88748217056004
C           -3.01172399801614       -2.26069188628527        0.98232896952063
C           -3.56441263370288        0.06398010557796        0.15266696662149
H           -3.19066350228955       -1.95940246172095        2.01214426699091
H           -3.93762055894389       -2.65123483725110        0.57618851915215
H           -2.25697226967005       -3.04505407338269        0.96794771461364
O           -3.02369086249444        1.29750161343524        0.06444581549409
N           -4.78683648012715       -0.20608232378320        0.23363843876548
H           -8.04732443512891        1.69714095257510        0.71464355274294
C           -5.82667354746495        0.79399252349847        0.17806886353146
H           -5.74175525476516        1.47946746556112        1.03391497643250
C           -5.74003757909036        1.59460689851676       -1.14436742685983
C           -7.14564198888667        0.05808204512138        0.24516653839614
H           -4.73946008084738        2.02510545262224       -1.19642799308152
H           -5.83743808927223        0.87035412890784       -1.95682045292600
C           -6.75687833811293        2.72243948784108       -1.35076807349560
O           -8.25976791133851        0.77280056718222        0.53725373177178
H           -7.77412048182692        2.31709998899363       -1.32182739794153
C           -6.61190410440825        3.82434648572597       -0.30089604866818
C           -6.54664011377214        3.32099741484873       -2.74232604614214
H           -5.60759207148228        4.24118630502109       -0.33735398495896
H           -7.32195752821773        4.62556635200906       -0.49488603943424
H           -6.78529464476392        3.46310769367222        0.71170087228521
H           -6.67363985208961        2.56171819096159       -3.51022068460607
H           -7.26412298844309        4.11736730622265       -2.92648559778405
H           -5.54432059141774        3.73449607691113       -2.83035068730469
N           -7.15624587769050       -1.18544615268475        0.08677390515902
H           -6.17318593230886       -2.62720551154704        0.08538135309439
C           -8.33247582361079       -2.01033595521155        0.15704514131583
H           -8.95493900294213       -1.76921245912612        1.02895178973331
C           -9.18970257874973       -1.90202864393118       -1.10773645948102
C           -7.82404557604673       -3.45844983809600        0.29556696749304
H           -8.57405943329907       -2.07994427281596       -1.98714981305849
H           -9.97978396812501       -2.64661141193953       -1.06983233232223
H           -9.62897516613550       -0.90984141591212       -1.17589382666194
O           -6.50599014729396       -3.55791685918058        0.20088673029599
O           -8.55442303641336       -4.39667776701799        0.46000797086931
