42
 energy: -62.486133519715 gnorm: 0.000478904495 xtb: 6.7.1 (edcfbbe)
N           -2.27161219141620       -2.53406735390165       -0.44390849663655
H           -1.32766980807979       -2.89946568571519       -0.40264635485434
H           -2.63828652114740       -2.73249737265062       -1.37069456887377
H           -3.93699336399449       -2.52542609245427        0.53328132929596
C           -2.28333276890934       -1.09041614005391       -0.21187040496111
H           -1.68776318917557       -0.90159677248628        0.69132638696556
C           -1.73227947069952       -0.25451332765511       -1.36514103085367
C           -3.72195610236806       -0.70394837340344        0.11415887212583
H           -2.30099460596211       -0.45099721232095       -2.27147616015800
H           -1.82858692192100        0.79842844727107       -1.12423442881623
H           -0.68515764405675       -0.49244708057145       -1.54265819438998
O           -4.46986179004861       -1.70787793425169        0.60021058485258
N           -4.07718954583338        0.49027224541724       -0.02959394425336
H           -6.11563419077597        0.28059036484349        2.40367848034531
C           -5.41161775869268        1.00579341481158        0.17142359016423
H           -5.33258884467789        1.72685300406772        0.99875201840260
C           -5.75368343467722        1.76688299890181       -1.12066392633618
C           -6.46002465893964       -0.02629959289475        0.52490834828801
H           -4.95849931560718        2.49870275782467       -1.27045599955945
H           -5.71392031034796        1.04834808037765       -1.93933336730830
C           -7.11410981128843        2.46976807740715       -1.14729882611932
O           -6.71584586392509       -0.22291365150251        1.84100809038561
H           -7.89401669651674        1.70433690791221       -1.22560152634309
C           -7.37205303478539        3.31033081729871        0.10091861764915
C           -7.19463185367768        3.34783478330511       -2.39571448744689
H           -6.54941099897768        4.00209597565121        0.27011427821738
H           -8.28457504802648        3.88951540878569       -0.02159023331175
H           -7.49379835041914        2.68651375158631        0.98310455446972
H           -7.00279810684945        2.75948109196343       -3.28950638444106
H           -8.18170396354128        3.79560510052997       -2.48437323817599
H           -6.45869507837021        4.14722225302081       -2.34518210763548
N           -7.04776523005417       -0.66302442588605       -0.39111232343942
H           -8.92565919158464        0.50770129203472       -0.00378048481084
C           -8.02309038750547       -1.68967042027729       -0.08198341434236
H           -8.51648947355852       -1.92195020735243       -1.03926556847538
C           -7.39031676210435       -2.96313789402821        0.47382358651557
C           -9.13122825658293       -1.19369781274545        0.85554127752161
H           -6.84364636004546       -2.73301734167102        1.38341337396946
H           -8.17367899099686       -3.67919434741453        0.70483525187430
H           -6.70603662640396       -3.38596149721543       -0.25650765798491
O           -9.49001894207004        0.08588924879607        0.66386173522068
O           -9.68896976282337       -1.88207110619796        1.65916784972659
