42
 energy: -62.486133511832 gnorm: 0.000480719568 xtb: 6.7.1 (edcfbbe)
N           -1.00036730144285       -0.14986045456834       -1.43405064736712
H           -0.30523084892398       -0.69297867597018       -1.93133102492038
H           -0.55295046370340        0.24267305240255       -0.61023216512286
H           -2.33971144019183        1.16461101651635       -1.80157474129228
C           -2.13274357786222       -0.98365259227466       -1.03640118376354
H           -2.42690349503366       -1.57121856085257       -1.91602494643106
C           -1.84392682285758       -1.93142370129796        0.12581076889235
C           -3.30040403228205       -0.04323025296693       -0.73896139735063
H           -1.60790253167997       -1.36447807601829        1.02396393137474
H           -2.71411084422137       -2.54740014241722        0.32449916944491
H           -1.00235224723650       -2.57764269639403       -0.11681860897845
O           -3.20505816737777        1.14941697313330       -1.34268158127409
N           -4.22218070747570       -0.45988881951156        0.00393437865598
H           -5.28857823410119       -2.02830938480213        0.97323373509839
C           -5.45383475188170        0.21287930957953        0.36608299566732
H           -5.39581347186572        0.36408677795009        1.45515096863683
C           -5.79537196849385        1.53830779442002       -0.31568879443736
C           -6.49815775748980       -0.86361567650462        0.12316360608403
H           -4.93045037136110        2.19854469585970       -0.25569851827023
H           -5.99054085327696        1.33611924382226       -1.36943229578840
C           -7.00284179255041        2.24890328877978        0.30951795706626
O           -6.21280939847298       -2.05595445464362        0.67872031575684
H           -7.79252996664485        1.51322052898637        0.48494657135681
C           -6.63574384506869        2.90151725945728        1.64127417857825
C           -7.52945373366507        3.30952420466039       -0.65565130518404
H           -5.85370924192016        3.64447736538449        1.49663548250971
H           -7.50323602243040        3.39862440500648        2.06932751672000
H           -6.28252950090355        2.16729013700956        2.36150684792390
H           -7.85142565439402        2.85867761135395       -1.59109086718837
H           -8.37736999192379        3.83319116801532       -0.22032303395715
H           -6.75254718342238        4.03907673805216       -0.87496086898921
N           -7.49360556756498       -0.64771888524862       -0.61348992456974
H           -8.33499971947455        0.40452876694655       -1.81180076979230
C           -8.46776426552285       -1.66938281776935       -0.91708320756874
H           -7.99286146743010       -2.62872535666484       -1.15935713708536
C           -9.44739910091714       -1.88218590867642        0.24209991368585
C           -9.26107205857245       -1.17891080629415       -2.13841727180625
H           -9.90241923752890       -0.93436480131831        0.52342718215891
H          -10.22680700949809       -2.57203289289753       -0.06892322507709
H           -8.92083013305632       -2.29244905636638        1.10015269242058
O           -9.02428034818704        0.09047761508486       -2.44518788231830
O          -10.03336613592718       -1.87274975178671       -2.73933171687231
