42
 energy: -62.486133507858 gnorm: 0.000480004478 xtb: 6.7.1 (edcfbbe)
N           -1.27705945766245       -1.30633583311773        0.57196305711543
H           -0.32663765833500       -1.46855641885047        0.26264321515504
H           -1.63272336138591       -2.18570517590455        0.93756235816504
H           -2.28574317447202       -0.07976346613281        1.62942646321971
C           -2.11909342197405       -0.85396011291875       -0.53614662105884
H           -1.55196838741195       -0.09895117810801       -1.09435257792801
C           -2.56468391159027       -1.95766261624307       -1.49258495769630
C           -3.31954155539979       -0.13777250690771        0.06399199682470
H           -3.07873686369375       -2.74386387795637       -0.94240822089502
H           -3.25536188324126       -1.54151000593626       -2.21801221378213
H           -1.70795781529587       -2.38791237405636       -2.00717242312847
O           -3.17746573864608        0.22258022336994        1.36125024618292
N           -4.33360464808016        0.07964533588601       -0.64318072524782
H           -5.91416385023174       -0.22709062965505        1.99838125371481
C           -5.45916949696654        0.82303337052589       -0.11538221784697
H           -5.19738062788443        1.34088256598113        0.82006459421526
C           -5.90229422245292        1.82920685437737       -1.18135525857762
C           -6.54209889552601       -0.19361321949260        0.15602581588508
H           -5.05775929969095        2.48435073962744       -1.40338092364295
H           -6.13698510912441        1.25171198585253       -2.07426015174314
C           -7.11890682660250        2.66848923771963       -0.78051595558416
O           -6.62872875965932       -0.61131186580873        1.47383128370690
H           -7.92991406769069        1.99034110224977       -0.49583638375118
C           -6.81541394975408        3.59728248193026        0.39401601791436
C           -7.58193150976126        3.48789779902612       -1.98332616271641
H           -5.96324148959580        4.23405925759158        0.16417556098205
H           -7.67288623311449        4.23418905544593        0.59873372665782
H           -6.59406365271709        3.03872477019539        1.30024524555151
H           -7.83181052140433        2.83393725162758       -2.81441045525642
H           -8.46315999802738        4.07240289610088       -1.73009100398438
H           -6.79679459109518        4.17002552651253       -2.30317451662000
N           -7.22816003549837       -0.65078247883645       -0.78063167345121
H           -8.44849779493895       -0.70326887153462        1.49250245720217
C           -8.23422446110353       -1.67683451257956       -0.70782168718758
H           -8.49553388901514       -1.90025426568457       -1.74860248046519
C           -7.77625232200480       -2.96891284374006       -0.01713783343971
C           -9.52255679919653       -1.18580273610537       -0.02894505764922
H           -7.56351264586865       -2.80444584121890        1.03696114795665
H           -8.55382839981399       -3.72331744871879       -0.10722754960412
H           -6.87217903002324       -3.33128918322776       -0.50150175538380
O           -9.37810812250253       -0.68593460925192        1.19834881642459
O          -10.59605677730856       -1.26593415151831       -0.55372935888921
