42
 energy: -62.486133505405 gnorm: 0.000480994431 xtb: 6.7.1 (edcfbbe)
N           -1.47960067367765       -1.88825357263987        0.07177195408097
H           -0.99743202935932       -1.49685064929368        0.87408925361395
H           -0.80022085040996       -2.39173327147125       -0.48596427491870
H           -3.28002451245147       -2.21965618077097        0.70462868786730
C           -2.12254609836404       -0.83766700674557       -0.71557181126309
H           -1.52864425605581        0.08227834773659       -0.80257928860803
C           -2.44415353395019       -1.36099935141272       -2.11609487938992
C           -3.43787286466544       -0.50117048508892       -0.03275829948647
H           -3.05059439824948       -2.26174272677802       -2.04940388755889
H           -2.99527532768170       -0.60515430527550       -2.66716174966419
H           -1.52723388654626       -1.59330731833852       -2.65354326389766
O           -3.93839714196213       -1.49416129501865        0.72555722161817
N           -3.96003944317307        0.61997912758805       -0.24126638144161
H           -5.33732802735896       -0.06431474074629        2.45623197327687
C           -5.25570421384615        1.03833524729940        0.25252551506252
H           -5.06087289239498        1.69759335940914        1.11166047245761
C           -5.90177541753304        1.86221081374623       -0.86995051402321
C           -6.14546097084997       -0.09732068542429        0.71189091072473
H           -5.18605765223527        2.63653679021132       -1.14995036253637
H           -6.03558579066947        1.20297400973394       -1.72774896423662
C           -7.24540960232798        2.50129181830266       -0.50942728450278
O           -6.10803103198503       -0.44286455519363        2.01765201065767
H           -7.93699372976798        1.70895377091866       -0.20772256982000
C           -7.11580739418856        3.50132587012969        0.63784007103873
C           -7.81612515835243        3.19652078226277       -1.74439913607990
H           -6.34668740799641        4.23842234233078        0.41617468124703
H           -8.05779385558823        4.02432702414572        0.78657092235916
H           -6.86280253018576        3.00387976051063        1.57093994100224
H           -7.93249491876971        2.49078432108845       -2.56309378744552
H           -8.78965468967883        3.62813108350947       -1.52394243948530
H           -7.15293269532281        3.99512378662317       -2.07014451550611
N           -6.92535974273220       -0.64329787625991       -0.11197666075069
H           -7.26753237586156       -1.05462193909780       -1.82526498610536
C           -7.77889538531976       -1.74651369240820        0.25852773211345
H           -7.29041793803382       -2.42413517701306        0.97021162053527
C           -9.09576987075739       -1.25205928605298        0.86710253552831
C           -8.09671890198836       -2.51807262770762       -1.03044077512108
H           -9.57950421490075       -0.55183513120526        0.18869840659304
H           -9.75519174727540       -2.09917614184325        1.03311168912776
H           -8.90078888825161       -0.75351018825379        1.81347702465454
O           -7.71735530571415       -1.87927243038521       -2.13130849736003
O           -8.64910384219886       -3.58300304478811       -1.04001339189018
