42
 energy: -62.486133515040 gnorm: 0.000480126601 xtb: 6.7.1 (edcfbbe)
N           -0.74994122584083       -0.01868656157253       -0.44285768068201
H            0.05307554332357       -0.25099504718437       -1.01431999963679
H           -0.55695304672347       -0.33998964467627        0.50182585105135
H           -1.90846316164160        1.48319167192738       -0.10055808147157
C           -1.96028752687205       -0.66162370771407       -0.95121701633101
H           -1.98298082110712       -0.50261653338434       -2.03701914375911
C           -2.05952787613039       -2.15852033232664       -0.66378322853695
C           -3.14848136875395        0.10375071594549       -0.38164267762965
H           -2.03603834052120       -2.33838796704135        0.40962193600943
H           -2.99299424500948       -2.54258346821008       -1.06116383375863
H           -1.23010798772108       -2.68877774434547       -1.12734075000409
O           -2.87358103639775        1.35799680761372        0.00728124197159
N           -4.26949527016646       -0.46187063992180       -0.32623185690908
H           -5.20697689196561       -2.08520192210494        0.63625126649059
C           -5.47579220283171        0.18171321753412        0.16298372436033
H           -5.35086225577193        0.41286203752788        1.23164188401096
C           -5.84802328704504        1.46263574802194       -0.59181119068644
C           -6.53447857724370       -0.89610135168312        0.03284557069460
H           -4.96046381804806        2.09181564416647       -0.66398752471810
H           -6.14722829851552        1.17585420775758       -1.60107698193600
C           -6.97095560391105        2.26491054704665        0.07675613714981
O           -6.16975668087002       -2.09983413574491        0.51476231670755
H           -7.75778283873662        1.57207199159672        0.38773983702438
C           -6.46102309329026        3.01410478329597        1.30635472843283
C           -7.55988718156727        3.25713452852882       -0.92457981346630
H           -5.67566542314478        3.71291969471758        1.02554146224413
H           -7.26996608075887        3.57488836284025        1.76898611168472
H           -6.05908702519314        2.33045626799588        2.05010561326222
H           -7.97323775149745        2.74133354273764       -1.78781749053107
H           -8.35496531417644        3.83698501630240       -0.46192549561273
H           -6.79142497062966        3.94585318943614       -1.26992122535896
N           -7.61899008129352       -0.68017116835913       -0.56629876566134
H           -8.61261063071879        0.36181427642070       -1.65478690468067
C           -8.60807118639130       -1.71529662073123       -0.75620661347527
H           -8.15131906794382       -2.66494075449580       -1.06351120728597
C           -9.43118901529327       -1.95292242374671        0.51442311935025
C           -9.55385961668681       -1.23247356267140       -1.86631014745654
H           -9.86094371188461       -1.01473093066483        0.86032063994508
H          -10.23312645043155       -2.65282098200120        0.29743805983088
H           -8.79432668091081       -2.36135497268206        1.29511853485246
O           -9.37017380359981        0.03941437974770       -2.19945588845416
O          -10.38822735901184       -1.93383201318617       -2.36723946510567
