42
 energy: -62.486133507119 gnorm: 0.000480527568 xtb: 6.7.1 (edcfbbe)
N           -1.61030120690816       -0.54193627646139        1.02783251585436
H           -0.76656780455743       -1.08440826663370        0.88742780317989
H           -1.89396250519395       -0.66931534152188        1.99530042590255
H           -2.34435704448283        1.21581714032972        0.65641863056288
C           -2.67869554898710       -1.00877239812041        0.14283099876981
H           -2.25775948343531       -1.05877677870394       -0.87045645708988
C           -3.27127082205124       -2.36632161130829        0.51106290212263
C           -3.74215432591928        0.07917734250318        0.12059283526938
H           -3.67623802591865       -2.34023475849891        1.52005357409635
H           -4.07922357826517       -2.60534593956078       -0.17095031493104
H           -2.50880989221715       -3.14066014289987        0.45391969843451
O           -3.27969992906163        1.31788518385271        0.38812041395619
N           -4.93180238629308       -0.23042388110255       -0.12704331002316
H           -7.99648671669486        1.21360769965589       -1.63500358162101
C           -6.00958786716457        0.73054384493801       -0.19977723422267
H           -6.12045899176826        1.21728068491654        0.78078140565614
C           -5.78990256338586        1.81733804531726       -1.26793351770607
C           -7.26036758133961       -0.10182144156636       -0.44118853364811
H           -4.72566621360579        2.05219928148884       -1.29368618764185
H           -6.04406097763748        1.40987408924568       -2.25197124259905
C           -6.56024307157757        3.12038834261496       -0.99164565016915
O           -8.23744394699055        0.36369654760130       -1.24542206170932
H           -7.54372170350246        2.89279330208012       -0.55976568714358
C           -5.80135925409470        3.98077339446562        0.01673945625176
C           -6.76943790214743        3.89921689491191       -2.29011847968358
H           -4.85073786057464        4.30165062011868       -0.40313163280167
H           -6.37985565230769        4.86396533882496        0.27760565458811
H           -5.59641536678796        3.42301824855269        0.92700211738454
H           -7.35623592980894        3.32810890063486       -3.00813075432203
H           -7.29154006919387        4.83254056707412       -2.09268486648542
H           -5.80980651698645        4.13470257668254       -2.74503769888387
N           -7.32840737311479       -1.19886815750068        0.16604599817542
H           -6.42609181623079       -2.36832173969538        1.12159406166372
C           -8.40683489244501       -2.14716279820260        0.06974854823928
H           -9.34870355289770       -1.71568289845589        0.43203806039965
C           -8.62353666474237       -2.69106121592807       -1.34610354024756
C           -8.01953989988955       -3.32039646459931        0.99180943499609
H           -7.68115806206022       -3.05907545999648       -1.74708811773360
H           -9.33768647080366       -3.50895155508196       -1.30701737442868
H           -9.00421196033922       -1.90788602880031       -1.99594574084866
O           -6.78697879959245       -3.22614505723233        1.46897334332531
O           -8.75887106433457       -4.23503573903780        1.23313939507180
