42
 energy: -62.486133504205 gnorm: 0.000480921276 xtb: 6.7.1 (edcfbbe)
N           -1.15298137888650       -1.82596232653212        0.32799918746674
H           -1.14524878553449       -1.98068831591598        1.33111952544564
H           -0.19318920275558       -1.83414659224893        0.00195748961964
H           -2.75761689821646       -2.60369027156089       -0.23348408559223
C           -1.80457094610460       -0.55789101933319        0.00113501107871
H           -1.60264214202000        0.24319789351004        0.72397461690150
C           -1.37513313758475       -0.09329142502550       -1.39021085659796
C           -3.30916740732771       -0.81339073686593       -0.01970690485739
H           -1.56291618239508       -0.87549793928481       -2.12282298657175
H           -1.93839185080785        0.79295959248251       -1.66612459889318
H           -0.31407133905686        0.14723517774030       -1.39916198333332
O           -3.61468503196217       -2.12088287599593       -0.24970786708399
N           -4.07245017871890        0.15853294750182        0.12559896541591
H           -5.25914157061614       -2.03126835237265       -0.67896276414516
C           -5.48660497501840        0.38722623797147        0.12982231032780
H           -5.69474822875735        0.86588572537851        1.09204766054743
C           -5.67742835252518        1.44592891084076       -0.99311876859692
C           -6.52099837374417       -0.71138560229116       -0.06296954681206
H           -4.85426162595270        2.15459849851779       -0.88284080707393
H           -5.55010944269611        0.93592400508481       -1.95186321577717
C           -6.99891759765538        2.21510357058562       -1.00955281898596
O           -6.22068621776545       -1.88497161820036       -0.62476506784341
H           -7.82131805730043        1.50282708810355       -1.10972002145769
C           -7.20220842842881        3.02912910598170        0.26469645614366
C           -7.01947686478948        3.14032169479497       -2.22630215153832
H           -6.39324284658266        3.74609907010220        0.38947171892455
H           -8.14081413143099        3.57460821275461        0.21233402574366
H           -7.23400282450795        2.38775071064172        1.14088128001159
H           -6.90281690410019        2.57288820380217       -3.14677820471235
H           -7.96376940706033        3.67640782323777       -2.27416024285468
H           -6.21325219981073        3.86882353723714       -2.16675624123804
N           -7.71081998426170       -0.39725650003830        0.23671512772601
H           -8.96238532833057        0.83123135279429        0.73458605579489
C           -8.80770853354644       -1.31462547030418        0.01950021344531
H           -8.75796318872237       -1.78539742968508       -0.97067723183581
C           -8.85285185069322       -2.41503349119037        1.08666002511287
C          -10.10737520206343       -0.50450941316652        0.11892967759392
H           -8.85711874269420       -1.96824650544054        2.07917187870772
H           -9.75641663918159       -3.00397191886154        0.95691835719854
H           -7.98343172742958       -3.06039769878533        0.99107153074607
O           -9.93335560102863        0.71956514862443        0.60361863457141
O          -11.17990193076760       -0.94576471414866       -0.18958855003431
