42
 energy: -62.486133509314 gnorm: 0.000480433525 xtb: 6.7.1 (edcfbbe)
N           -1.93420981792234       -0.38041069258898        0.49767542937902
H           -1.24082346811877       -0.83452377893883        1.08270448062874
H           -2.42779351183332        0.30854986170295        1.05551948183282
H           -4.33706423944197       -1.90963855509880       -1.87313002329272
C           -2.89287671370413       -1.35056271207184        0.00826846557959
H           -2.43706120140013       -1.85975530595149       -0.85572612693676
C           -3.30887677112585       -2.40899902189701        1.04911769277710
C           -4.15455612826120       -0.64381580293966       -0.42833845954263
H           -3.71926127615991       -1.91362043619715        1.92584341628927
H           -4.06493315347518       -3.08055947153968        0.64860886896731
H           -2.44410046909486       -2.99922649765465        1.34543414276814
O           -4.79796310721616       -1.14198724837817       -1.51143724284200
N           -4.55157176138787        0.34379723947733        0.23808713903272
H           -7.40394852162988        1.16870374881211       -1.93192694250257
C           -5.80943346719215        1.01309554404041       -0.01150683258700
H           -6.11162961638487        1.40687274983881        0.96810635013047
C           -5.57509739146264        2.19007943352138       -0.97155013872220
C           -6.89800318573039        0.04849412630681       -0.45815976895973
H           -4.59040085530326        2.60013617764125       -0.73708098826503
H           -5.51348266348572        1.81037041521049       -1.99701301628867
C           -6.61989966000989        3.31250100355263       -0.85630668450461
O           -7.67750213982065        0.34324249285143       -1.51234007912057
H           -7.61713733816129        2.88138019672052       -0.70294366128150
C           -6.31403111907918        4.20984635085143        0.34119643730677
C           -6.64217867254309        4.14492114362753       -2.13811266677947
H           -5.35847272374604        4.71073690562452        0.20284763176687
H           -7.08585919873106        4.96757867102832        0.45416740885355
H           -6.26744698438688        3.63186000437439        1.26061595742359
H           -6.91570448537131        3.54071216793010       -3.00172516651974
H           -7.36200503286616        4.95525384681404       -2.05146668030666
H           -5.66127838703686        4.57760900223004       -2.32183819230093
N           -7.03296923586743       -1.00722996457133        0.21760781072856
H           -6.55900255055675       -1.96379008162442        1.63896465526009
C           -8.02482974316736       -2.01423889001756       -0.07548935838903
H           -9.02902409903730       -1.57634255072788       -0.14144827188235
C           -7.73905591639000       -2.78211257358732       -1.37042613448725
C           -7.99521478526116       -3.01338703653546        1.09294046201175
H           -6.74830484651736       -3.22940706726215       -1.32498541128360
H           -8.47782410540849       -3.56982286545849       -1.48650671661920
H           -7.78505222655872       -2.10869893956841       -2.22147970471350
O           -7.01197348580141       -2.78460533292792        1.95546254912775
O           -8.76833723246896       -3.92503207138781        1.19670538423701
