42
 energy: -62.486133507399 gnorm: 0.000480472907 xtb: 6.7.1 (edcfbbe)
N           -1.09843693045192       -0.48511999029112       -1.18150895443209
H           -0.45144121878189       -1.07687609861454       -1.68894816389058
H           -0.70604369820130       -0.32557133655831       -0.25774168243287
H           -2.16992665435049        1.10715283947514       -1.45273064189651
C           -2.40466308735549       -1.13250842474544       -1.05621848314319
H           -2.69773758259549       -1.46473057128705       -2.06065867138007
C           -2.44300302590517       -2.32476214628825       -0.10557202405762
C           -3.41111219906141       -0.05729103799634       -0.65865653316555
H           -2.12807970723656       -2.02097001655382        0.89046558097459
H           -3.46011971121998       -2.69445185535284       -0.04561389570638
H           -1.78627316847533       -3.11691058948241       -0.46016383709570
O           -3.05991810893125        1.18334656494901       -1.05470249820442
N           -4.43894921174795       -0.40992020709294       -0.03824093730524
H           -7.59423402415755        0.29487015278498        1.72012928503388
C           -5.55158934364163        0.39481453478853        0.38459885575818
H           -5.45581213352155        0.49908599039073        1.47623870879143
C           -5.68403459740305        1.78681585085088       -0.26868045890237
C           -6.79467114718200       -0.41624623274820        0.08625312890549
H           -4.76590565455988        2.34285677510502       -0.07858057603208
H           -5.76026346504510        1.62465785800882       -1.34540731439542
C           -6.87529917849062        2.62905483236698        0.20194738134300
O           -7.83813567018727       -0.28705856653121        0.99038103957366
H           -7.80116625832004        2.05292703284315        0.09866333429782
C           -6.71651697570364        3.07771839780683        1.65508215848156
C           -7.00158351288748        3.85832876266915       -0.69725440244105
H           -5.82727141225690        3.69616988519040        1.75790670728521
H           -7.57784480136155        3.66556707720829        1.96522299590208
H           -6.61938122634758        2.23823711226087        2.34194404646742
H           -7.16919736185591        3.55999286145247       -1.72891645814916
H           -7.83686610104103        4.47854628101796       -0.38035049868464
H           -6.09301885594673        4.45494878610576       -0.65450672237660
N           -6.82867252452552       -1.14134620139953       -0.92823735036038
H           -9.17417747179691       -0.29048686810901       -0.22671800353020
C           -7.90443603961303       -1.99196999489892       -1.36491375158948
H           -7.49583548889895       -2.56496859225764       -2.20533618004651
C           -8.41477238231213       -2.96673599284189       -0.29461557018761
C           -9.09717197131820       -1.19692869024671       -1.91808068785252
H           -8.88184150485458       -2.44092734629583        0.53526803189236
H           -9.14098974175957       -3.64371619118645       -0.73779153262537
H           -7.57823295640071       -3.54549642332418        0.08989920203771
O           -9.63738139653244       -0.30657780011590       -1.08595704926517
O           -9.53418373943899       -1.37554660905389       -3.01896252873845
