42
 energy: -62.486132272105 gnorm: 0.000626769542 xtb: 6.7.1 (edcfbbe)
N           -1.30497461809913       -0.95782396179815        0.96967769241150
H           -0.35074115042543       -1.21554639998794        0.74975751610276
H           -1.68400073071781       -1.67912811806302        1.57697202978534
H           -2.35320152967843        0.53137916333106        1.59097013792265
C           -2.11435750520960       -0.85800709289637       -0.24332947036237
H           -1.54003374318552       -0.27122259356158       -0.97157483053523
C           -2.49606734354523       -2.19983990167302       -0.86450224777779
C           -3.34828847475395       -0.03915436776760        0.10904352538701
H           -3.06014996420763       -2.79493151842516       -0.14982978959233
H           -3.11992399479250       -2.03343030600921       -1.73544736591800
H           -1.60464624515384       -2.74978363182039       -1.15973743802076
O           -3.22738911065064        0.73178827253349        1.19976373349611
N           -4.37197155572691       -0.11233145564346       -0.61867905122863
H           -5.93720711159413       -0.36233745747696       -2.39635667366944
C           -5.55801129397199        0.66386587420540       -0.30922438362750
H           -5.61951064699155        0.89806420810206        0.75931306169185
C           -5.56800940655142        1.96288497405508       -1.12961623912363
C           -6.70911291620249       -0.24043753160332       -0.67792318400925
H           -4.78960276965927        2.61577260576805       -0.72940034710943
H           -5.29829528572443        1.73150949137238       -2.16483941833221
C           -6.91540173031690        2.69296602437688       -1.11094024152169
O           -6.74928515423484       -0.65072108932719       -1.95737272344535
H           -7.68354626763552        2.02317331765977       -1.51425597118495
C           -7.32164964907938        3.09293824593314        0.30480459208882
C           -6.83347144400080        3.92827168632845       -2.00640357943219
H           -6.53738949817723        3.68453161122129        0.77221528482220
H           -8.23101750642276        3.68852394161810        0.27778209541555
H           -7.51123500948725        2.21548350320424        0.91664899933860
H           -6.56148810420450        3.65423402789479       -3.02356674881407
H           -7.79239388972702        4.43956249957738       -2.03598018510038
H           -6.08674364835592        4.62204879259622       -1.62588631988704
N           -7.49956241170602       -0.64261927794999        0.21613912309173
H           -8.24215115251630       -0.44414867161507        1.85587139961152
C           -8.57377187557170       -1.56628863926954       -0.08080426037117
H           -9.09561548482165       -1.30205499516803       -1.00886949978724
C           -8.06094239344634       -3.00620900409447       -0.19474074541954
C           -9.57151538663004       -1.49602214938096        1.08432223135349
H           -7.49911859510897       -3.27040795049391        0.69900632148156
H           -8.90618498417446       -3.68085652594632       -0.29738501816063
H           -7.41263867285848       -3.10067507076196       -1.06208203273985
O           -9.12645410441195       -0.79248866216920        2.11881919830350
O          -10.63911889643392       -2.04255769069488        1.06657584400020
