42
 energy: -62.486133505753 gnorm: 0.000480652953 xtb: 6.7.1 (edcfbbe)
N           -2.60708747926022       -2.15492807608631        1.52059047326973
H           -2.66875826374306       -1.78009451361033        2.46076057432283
H           -1.72239181312980       -2.64002350442967        1.43157400754317
H           -4.42277336048792       -2.46640305193187        1.13406334370285
C           -2.72631987252490       -1.09262928010639        0.52496746586836
H           -2.19021825087579       -0.17112774428180        0.79048173677678
C           -2.21793893159020       -1.59148265071961       -0.82729116087091
C           -4.21370879696148       -0.76149073253759        0.39587178570111
H           -2.74541011080712       -2.49911903359328       -1.11369081262271
H           -2.38807841397081       -0.82919925872978       -1.58140859542815
H           -1.15251933230899       -1.80723578997142       -0.77765157457240
O           -5.01536335875183       -1.77389915664585        0.76291280412173
N           -4.50721531750984        0.36573714375316       -0.06197544198996
H           -7.49531848073039        0.75659484209550       -2.08631363250655
C           -5.77392015904709        1.00845655135965       -0.30101914497849
H           -5.90385354236026        1.68492616444126        0.55738822180549
C           -5.58720485879312        1.87220390394884       -1.56014519510470
C           -7.02371979155302        0.13793139929589       -0.32230470432407
H           -4.56291887638219        2.24635458940822       -1.52633217555794
H           -5.65066058331960        1.23955933077738       -2.45193233967487
C           -6.55233076470581        3.06490768994779       -1.66032591103314
O           -7.82749818572653        0.15376640968065       -1.40991592684015
H           -7.55432891277484        2.76529684436209       -1.32993515094650
C           -6.09057758628439        4.20918905830835       -0.76033772935892
C           -6.64319003211637        3.54758109395905       -3.10797582713242
H           -5.11787500036581        4.57429276567762       -1.08245970430252
H           -6.79847855247754        5.03371213534316       -0.80256975259197
H           -6.00950294742597        3.88465050562055        0.27394457667259
H           -7.02764839410094        2.76850946934907       -3.76442269343202
H           -7.30546714492185        4.40683909679930       -3.18101155881031
H           -5.65993276187743        3.84255982933770       -3.46811127279922
N           -7.26292314577295       -0.57537615835111        0.68349766610422
H           -6.58610432861296       -1.47549725414949        2.15005819842355
C           -8.39977082740201       -1.45493281935964        0.79202649858271
H           -9.34260151698154       -0.91396638161713        0.64579210821766
C           -8.33776094662485       -2.62831943029379       -0.19417720109328
C           -8.36453039030392       -2.04027037742465        2.21090245642164
H           -7.38144020309499       -3.13785763596472       -0.09443594839682
H           -9.14253787873597       -3.32516866063642        0.02394496980824
H           -8.44159097234278       -2.26401614221949       -1.21266098023945
O           -7.17036557608967       -1.95805199405303        2.78275363318085
O           -9.31435559852061       -2.55400467680751        2.73580893924270
