42
 energy: -62.486133509828 gnorm: 0.000480220129 xtb: 6.7.1 (edcfbbe)
N           -1.80773427925189       -0.45843245403494        0.83510287419141
H           -1.15920944207766       -1.09679164596033        1.28373068539339
H           -2.48326195013259       -0.14946407241401        1.52631337846336
H           -3.21679175741868       -0.48570665152239       -2.48997702237771
C           -2.51389873135191       -1.13100033497004       -0.23828828444235
H           -1.81988999583659       -1.20810013041614       -1.09010530796552
C           -3.02082015695262       -2.53975354475055        0.12219202236456
C           -3.71098294649447       -0.29446401040964       -0.63029468301554
H           -3.71210029894019       -2.46810714642639        0.95827654906412
H           -3.53833415984619       -2.99432838948145       -0.71974078835364
H           -2.18387171935887       -3.17701088498600        0.40103896984147
O           -3.93237331862422       -0.10837621236753       -1.96363811083098
N           -4.46569662950561        0.11741180629613        0.28240014295502
H           -6.21534300258500        0.38390074773256       -2.27061665375833
C           -5.66166849969369        0.90750307392496        0.06080927154609
H           -5.97824361184417        1.19253281434199        1.07039882848494
C           -5.45376104140693        2.17251296668719       -0.77721925225777
C           -6.71170142195651       -0.04567717646880       -0.47305366962681
H           -4.69124857624028        2.77187573657417       -0.27393130931975
H           -5.05335590160862        1.91893760627288       -1.76252711617669
C           -6.72794086398831        3.01079048449970       -0.94756795460256
O           -6.86463139513264       -0.16084547885263       -1.80515167503922
H           -7.51412463798779        2.38713635305412       -1.38868159870753
C           -7.23831314764854        3.54815036507657        0.38752892704261
C           -6.44192263367553        4.17076776897359       -1.90098081551479
H           -6.45431590099696        4.10312016391027        0.89836732055370
H           -8.07910751381464        4.21774881266687        0.22181388636122
H           -7.57436842474112        2.74270558436558        1.03494639957677
H           -6.09758180411736        3.80818247132918       -2.86759627462516
H           -7.34009114171429        4.76243322555319       -2.06013743656984
H           -5.67391623224369        4.81939899435495       -1.48480070653549
N           -7.31690597099912       -0.77907812174485        0.35347981985944
H           -7.84056914704543       -1.12350273379930        2.05408053047102
C           -8.24684736732972       -1.80158535642931       -0.07027451679920
H           -8.93537702388853       -1.43426729045068       -0.84158778219115
C           -7.51838645169779       -3.03947474664702       -0.60603472852150
C           -9.06271198126974       -2.21435510086520        1.16439008620530
H           -6.79082967245491       -3.38509646680998        0.12591571138312
H           -8.24140949467474       -3.82864973529467       -0.79152948935966
H           -7.00342827086387       -2.79523803439289       -1.53187048417564
O           -8.60438038983613       -1.69812295405740        2.29755050430961
O          -10.00874434684890       -2.94970602985217        1.10620501705378
