42
 energy: -62.486133518878 gnorm: 0.000479321020 xtb: 6.7.1 (edcfbbe)
N           -1.07159984433868       -1.12063720391277        0.29749314503970
H           -0.16877357652845       -1.29424543587297       -0.12727220538724
H           -1.34201988921784       -1.96570782827970        0.79380914001725
H           -1.98071643380111        0.20061520139582        1.35267227849814
C           -2.07488391153906       -0.80341379316869       -0.71980287372603
H           -1.62714608625921       -0.07014409613165       -1.40248552363727
C           -2.57385601645605       -2.00112913457179       -1.52430602563605
C           -3.22607286696669       -0.09653151011692       -0.01922591411960
H           -2.96605562703190       -2.76347743240908       -0.85403671466195
H           -3.37637226245617       -1.67908542107718       -2.17871486617756
H           -1.76666780221106       -2.42964308157945       -2.11492127757086
O           -2.91233028266995        0.44375675139674        1.17973357704642
N           -4.34877690772655       -0.04166476701945       -0.57644387114504
H           -6.56049065498081       -0.04498385750833        2.06713723428007
C           -5.45269444875030        0.66629566057159        0.02414235897074
H           -5.19332070046989        1.05106193297595        1.02389046937746
C           -5.83976763374484        1.82658019454851       -0.90640604684575
C           -6.61132564719389       -0.29731203687824        0.13238485172232
H           -4.97705487678650        2.48780102746546       -1.00892908210238
H           -6.05150729748874        1.37972295501950       -1.87757428905302
C           -7.05498531806662        2.62894920162569       -0.43054757169537
O           -7.09603812270262       -0.51175415067270        1.41340519315754
H           -7.87053371564457        1.93300371011950       -0.20425719633065
C           -6.74349330559552        3.45029796498226        0.81965711156076
C           -7.52251218204141        3.55294616225125       -1.55310834923908
H           -5.92532397343511        4.14036737039878        0.62310325555797
H           -7.61561180087198        4.02878949898844        1.11579097740131
H           -6.46164615456419        2.81833001522887        1.65878301756182
H           -7.79334564569324        2.97502052793277       -2.43280052567198
H           -8.39202937966687        4.12484977131239       -1.23793029431580
H           -6.73225053725258        4.24941934202261       -1.82570415231193
N           -7.06166837012816       -0.84564787135592       -0.89352055465503
H           -8.84948360745614       -0.52606621298548        0.93816625737729
C           -8.13110792174354       -1.80404912937938       -0.97803309584661
H           -8.11919747424737       -2.16093371764000       -2.01428815996879
C           -7.98953011019135       -3.00502791931716       -0.03249218858978
C           -9.50867743469970       -1.16093431312623       -0.75286993694680
H           -8.05434474120187       -2.70272235767674        1.01048857046702
H           -8.77682251094463       -3.72517943024102       -0.24114856561734
H           -7.02382751754850       -3.47768571259875       -0.19700165493467
O           -9.65940769392796       -0.49931360653804        0.39494467050127
O          -10.40292097507167       -1.26254299438275       -1.54284604348873
