42
 energy: -62.486133507173 gnorm: 0.000480645685 xtb: 6.7.1 (edcfbbe)
N           -1.50386641645065       -0.61270750724679        0.92325931853806
H           -0.63950011682749       -1.10223477505059        0.72499414284083
H           -1.77887382700764       -0.85482472806531        1.87163807078097
H           -2.30156788333337        1.13705400714805        0.78952124570786
C           -2.55664916610554       -1.01554324850811       -0.00941817224741
H           -2.13029020474056       -0.96906004429466       -1.02008102466970
C           -3.12984949020183       -2.40926776563588        0.23391448636195
C           -3.64423878119795        0.04703455934473        0.05847360568604
H           -3.52166982152704       -2.48153357715661        1.24610722103827
H           -3.94598132559096       -2.58597168665296       -0.45767085745802
H           -2.36227729490952       -3.16773848870796        0.09388234355044
O           -3.23261544156930        1.24786429946303        0.50888751245877
N           -4.81350418022314       -0.24737475459686       -0.29020664079275
H           -7.57605116565633        0.91216716653582       -2.11150188780600
C           -5.89902179853590        0.71246283780189       -0.26388148800441
H           -5.99406074719397        1.11718700178291        0.75359179048272
C           -5.68119014933718        1.87841636367967       -1.23859348604067
C           -7.14497542515806       -0.11303729500465       -0.54638269051707
H           -4.66984935648067        2.25481720082238       -1.07944140036165
H           -5.71399578449893        1.50141485021843       -2.26695165289003
C           -6.67062612492490        3.03916896124410       -1.03969121106637
O           -7.92196811255302        0.16253790756532       -1.61084185157873
H           -7.66625125081765        2.64478932045074       -0.80219961871084
C           -6.23127526516135        3.92356216214700        0.12532125938222
C           -6.77049441419718        3.87279740433768       -2.31712883367499
H           -5.26891946572547        4.38234128320362       -0.09054555252443
H           -6.95875090719423        4.71330369721590        0.29800552381916
H           -6.13480263527089        3.34382711810389        1.03965925358510
H           -7.14111524251211        3.28028162487019       -3.15227908823397
H           -7.44855931963394        4.71014432416046       -2.17096356997572
H           -5.79318282302028        4.26785385633124       -2.58608843630909
N           -7.38184912333304       -1.06157527998311        0.24538547333912
H           -6.85317573492853       -2.01512045939794        1.64465837696383
C           -8.48349760846700       -1.98065103646897        0.09518264997291
H           -9.44501416060245       -1.45353876443376        0.05392233908115
C           -8.35218010429753       -2.86997079340105       -1.14643901048068
C           -8.46629897910953       -2.88555315878378        1.33946139360480
H           -7.37597258739524       -3.35063756039724       -1.15260727018882
H           -9.12614070108559       -3.63204891468357       -1.12309082370675
H           -8.45872393142974       -2.27218061371478       -2.04741286669921
O           -7.37502623049694       -2.73631981142031        2.07875401310927
O           -9.34233817037806       -3.66416152260022        1.59773259201076
