42
 energy: -62.486136703625 gnorm: 0.000406656396 xtb: 6.7.1 (edcfbbe)
N           -1.02945326992152       -0.64388619721260       -0.57441216172962
H           -0.32464406684794       -1.34845335867832       -0.75466752233392
H           -0.73361050237301       -0.11863951077265        0.24402438018463
H           -2.04325782408416        0.66784983809060       -1.51883893422589
C           -2.33135858004109       -1.26036180775979       -0.31920935487014
H           -2.49899724001700       -2.00099344798189       -1.11267050547516
C           -2.46377588325220       -1.94143780034268        1.03934484260933
C           -3.38612883331090       -0.17382305274945       -0.51217963859017
H           -2.26036332371834       -1.22943178644223        1.83624446848791
H           -3.47766814372651       -2.30649285420748        1.16016899914289
H           -1.76620476582937       -2.77272812495085        1.11822241431120
O           -2.99323098297845        0.82161468559496       -1.33613742856319
N           -4.49585290149862       -0.30866518377816        0.05312505876421
H           -5.89957203158109       -0.03126859655283       -2.32735812707700
C           -5.63825188317602        0.57133695343426       -0.00748869264307
H           -5.91736377907942        0.73120656122786        1.03980339648537
C           -5.49686158255827        1.92626988058216       -0.71602245798592
C           -6.73710140641507       -0.26932012734243       -0.62581759316649
H           -4.75884537357740        2.52006663520059       -0.17347470895080
H           -5.10793623696988        1.78726183046743       -1.72798515960796
C           -6.81903851696146        2.70068162967722       -0.79648059103402
O           -6.66051610737798       -0.49400751963357       -1.95283871360887
H           -7.55988312948943        2.08444863810281       -1.31943243325135
C           -7.37067326892151        3.03768466387920        0.58657861307471
C           -6.60375815778413        3.98088063391345       -1.60284792111856
H           -6.62165441888248        3.55955431669748        1.17847388130246
H           -8.24143019490916        3.68221874826672        0.49241586111865
H           -7.67481157595580        2.13929161213389        1.11668708354953
H           -6.23095868102361        3.75515228986570       -2.59980547405427
H           -7.53759388918244        4.52835051176780       -1.70430773033064
H           -5.88134407900757        4.62380559507980       -1.10447977820909
N           -7.62654552979747       -0.76659098507239        0.11126189581355
H           -8.52391751585500       -0.81273812841619        1.69174390174598
C           -8.67094031078584       -1.61443056778716       -0.41973580901037
H           -9.07252748224373       -1.22893829359149       -1.36517350009827
C           -8.17067626734005       -3.04629923137860       -0.64072587453547
C           -9.79799404605346       -1.65276140492087        0.62259206384587
H           -7.73332078077131       -3.43135051564054        0.27810328879702
H           -9.00519917865576       -3.67761491789572       -0.93250190580067
H           -7.41608637923553       -3.05692457941615       -1.42302787962958
O           -9.44600266303383       -1.14459836545210        1.79760155066628
O          -10.88084046528904       -2.11794445709758        0.40016327829599
