42
 energy: -62.486133508194 gnorm: 0.000481197077 xtb: 6.7.1 (edcfbbe)
N           -0.88805818455033       -1.02908200216316        0.44881071158144
H           -0.56796990356098       -0.27774412352954        1.05057112495502
H           -0.07625282617651       -1.44360305762250        0.00683391020497
H           -2.41755233620265       -1.68204960189795        1.31797832857833
C           -1.82895759854000       -0.52876490097342       -0.55345043409944
H           -1.58657918672119        0.47378561893918       -0.92889595156796
C           -1.90326779003054       -1.49784876618173       -1.73370327977937
C           -3.20139124590041       -0.47423750906335        0.10168019648434
H           -2.14439430965603       -2.49973029757858       -1.38452024241028
H           -2.67362566416485       -1.16865976088938       -2.42447893137594
H           -0.95056612026203       -1.52934193337005       -2.25791670207710
O           -3.31627276882615       -1.31017232174814        1.17314687204656
N           -4.05887715607677        0.30416566086614       -0.36118435532418
H           -4.98356160192865       -1.72063211054428        1.03208926512159
C           -5.43576395642693        0.52282874253115        0.01605599448611
H           -5.43970419092337        0.93555135504530        1.04078993738371
C           -5.99291568338425        1.57930611670600       -0.94808746948524
C           -6.32959315986018       -0.70505420336818        0.09383154504502
H           -5.15944226945130        2.22186344810912       -1.23492594372237
H           -6.34405327292864        1.06902494653357       -1.84462102955342
C           -7.11857285473074        2.43910746762631       -0.36184542229508
O           -5.89858185944774       -1.81168178746329        0.71175156562035
H           -7.81713740654339        1.78509918800350        0.16780907644494
C           -6.57075381226964        3.47204885473448        0.62160110847809
C           -7.86762112228901        3.14997573198834       -1.48762198440802
H           -5.88546105680186        4.14900462018217        0.11554774143787
H           -7.38245585368764        4.05985796337400        1.04386548809774
H           -6.03754831304005        2.99821538432750        1.44231514738860
H           -8.31435964093426        2.43515861665476       -2.17383629823736
H           -8.66114528363621        3.77303682323652       -1.08207254214977
H           -7.18680832970750        3.78653229774867       -2.04905328521760
N           -7.49837775278840       -0.61067465010306       -0.37440825592216
H           -8.65926014260561        0.20458159970275       -1.48937736122419
C           -8.43976446929553       -1.70378832771036       -0.30117069341597
H           -7.96555635078432       -2.67317557015318       -0.50059632640955
C           -9.12692263206071       -1.76210775742516        1.06799390760707
C           -9.51269010076176       -1.44585282329611       -1.36941108375602
H           -9.56522648985708       -0.79449736689043        1.30503210762310
H           -9.91203702693742       -2.51247741839696        1.04437643798584
H           -8.40161884526791       -2.02111657395327        1.83534290262275
O           -9.44331554754843       -0.23196046092145       -1.90198158205172
O          -10.34217714449224       -2.25691706311508       -1.67532912498102
