42
 energy: -62.486133499643 gnorm: 0.000481630528 xtb: 6.7.1 (edcfbbe)
N           -2.26399818842065       -0.54597598460434       -1.90778930587803
H           -2.39231371549736        0.38106514097728       -2.30080564168061
H           -2.26025805194489       -1.20961741483146       -2.67433147865355
H           -1.28314037135379       -0.26642096368606       -0.23014241062993
C           -3.33669935381170       -0.86042796885557       -0.96098052185977
H           -4.33750363443806       -0.64980066208909       -1.36259095677545
C           -3.22497562973942       -2.34060493476932       -0.58927335345229
C           -3.06192391085981        0.02408488603572        0.26446273661270
H           -2.25268938705435       -2.54260830248686       -0.14402785928529
H           -4.00100810736175       -2.62892535011061        0.11273802424536
H           -3.33128996068318       -2.95264566261204       -1.48306839171694
O           -1.75637948928072        0.10935367255475        0.53998862562683
N           -3.83889652919547        0.71330412271533        0.97738309691281
H           -5.04550410447855       -1.35178415641536        1.98977316196057
C           -5.27810839281734        0.77141915498583        0.94999209901627
H           -5.57163591320027        0.95704938625052        1.99419824319764
C           -5.70861707385164        1.97415264299400        0.09515661856636
C           -5.94271705607314       -0.51363231740695        0.51613027933702
H           -5.03558951945616        2.79986629708523        0.33212038083208
H           -5.56174152650261        1.71016116099416       -0.95350836638449
C           -7.15945109681662        2.41518929122795        0.31969824616532
O           -5.67063720801191       -1.59113637155269        1.29185152450626
H           -7.79422035239551        1.52442287504451        0.34380196410090
C           -7.31439566219700        3.16693907572202        1.63980884207188
C           -7.61139941768635        3.30449090435843       -0.83763024780205
H           -6.69810968252158        4.06331603199845        1.63869486936675
H           -8.35037836933595        3.46399180808084        1.78518252896507
H           -7.01957392037436        2.55079170531234        2.48521484088712
H           -7.56293998867039        2.77008411112106       -1.78360531576440
H           -8.63624318159125        3.63417273541620       -0.68514893114974
H           -6.97624622133541        4.18495785599777       -0.90695235367453
N           -6.70750239655531       -0.55542877730457       -0.48064926833153
H           -7.32703181683013        0.21182452483222       -2.03224548503981
C           -7.32221865154446       -1.77652570209915       -0.94433870633823
H           -6.68486468924895       -2.65548737779044       -0.78880252889954
C           -8.67260212905421       -2.00917722538828       -0.25792551006229
C           -7.57688917638531       -1.59242157876594       -2.44760830098612
H           -9.31222638552305       -1.13800961846850       -0.38575019418866
H           -9.15725861243335       -2.87530912201837       -0.69958867751112
H           -8.52012250768350       -2.18403399654385        0.80441978850968
O           -7.56640788115015       -0.31833860211323       -2.82695026010570
O           -7.78048189750584       -2.50435144227733       -3.19796623786989
