42
 energy: -62.486133493833 gnorm: 0.000483081526 xtb: 6.7.1 (edcfbbe)
N           -1.03517774777502       -0.45270919745724       -0.97555717391607
H           -0.37447782653469       -0.97190593439947       -1.54138452860055
H           -0.71986875705807       -0.50847084572578       -0.01068169041109
H           -1.98921852512498        1.22719196992038       -1.00231276983622
C           -2.37766009061422       -1.02494053722232       -1.08749796338546
H           -2.59009667023468       -1.14264746110591       -2.15823226055673
C           -2.56831493678596       -2.36799501496885       -0.38991094858706
C           -3.36438937396205        0.01998707143150       -0.57679215102956
H           -2.31812124914371       -2.28087031296309        0.66552542113085
H           -3.60935465537692       -2.65985012327567       -0.47265988469346
H           -1.93583278020246       -3.12828215076971       -0.84390350517099
O           -2.91303518108258        1.28886909048306       -0.68589591118563
N           -4.46189286729340       -0.37262193294247       -0.12406970635444
H           -7.66307075635798        0.52510750140827        1.57870338754065
C           -5.56939183592375        0.41526169816250        0.33849905202202
H           -5.44910141488949        0.55778778188173        1.42290493117197
C           -5.72143257323321        1.78419858759106       -0.36510610593758
C           -6.81137207905685       -0.41430237818073        0.09146496535375
H           -4.79047574004296        2.33443811496289       -0.22969000525354
H           -5.83351382791173        1.57506922033015       -1.43150534764052
C           -6.88019110848920        2.67403797127988        0.09804590673000
O           -7.89050921401203       -0.14404898172796        0.92207248469484
H           -7.82830094525159        2.13300225090825        0.00807593411911
C           -6.69496740186690        3.14655713677313        1.54065857831066
C           -6.96658543744276        3.88993271708711       -0.82468051118411
H           -5.78055421608762        3.73018065336818        1.62456531171239
H           -7.52968490952602        3.77575882126621        1.84234991105693
H           -6.62661992429680        2.32009870700203        2.24701347136356
H           -7.14050574462351        3.57816806475353       -1.85147304724156
H           -7.78388930919641        4.54062263848970       -0.52164634903973
H           -6.04074854611845        4.46011693064876       -0.79010307329070
N           -6.81228466998806       -1.28971829501323       -0.79625163344955
H           -9.16358160726887       -0.30320200473743       -0.34694436102339
C           -7.88550901456442       -2.17812881113771       -1.15504082261354
H           -7.45226738548090       -2.87633503330551       -1.88061100043386
C           -8.46896665218483       -2.97557438202481        0.02007380051702
C           -9.03308007352721       -1.45533750540200       -1.87737897553230
H           -8.95653388860580       -2.32433473093561        0.74218082003499
H           -9.19410907542802       -3.69397812619086       -0.35422533218465
H           -7.66671553126560       -3.51045188373689        0.52305024054232
O           -9.58974796370118       -0.44198391817152       -1.21408871950000
O           -9.42503973623504       -1.79072341727834       -2.95860535001519
