42
 energy: -62.486133502306 gnorm: 0.000481090518 xtb: 6.7.1 (edcfbbe)
N           -2.21435341190804       -1.69341621319695       -0.41558216225940
H           -1.67554890738430       -2.51369664586005       -0.16702232418325
H           -1.56350991064483       -0.92048916480993       -0.52348024869946
H           -3.60256756357829       -1.20092904752119       -1.63901050638820
C           -3.19662594700091       -1.37589829576464        0.62146014452728
H           -3.67590139741047       -2.31633101496126        0.92059489599839
C           -2.62300927360662       -0.69066733612868        1.85886598110783
C           -4.28573900941156       -0.53379404932012       -0.02551663974631
H           -2.10336153301216        0.22277656616429        1.57537931615382
H           -3.43561521923166       -0.42992331893259        2.52779826434192
H           -1.92604762230656       -1.34965468645375        2.37237917426777
O           -4.34505602803110       -0.62278403202677       -1.36612636136853
N           -5.07184903024824        0.12666709282238        0.70052058385959
H           -7.62789865517699        1.12661168880891       -1.87658772978351
C           -6.15666948865182        0.88664124873195        0.11146948954567
H           -6.63900279009568        1.38706455824653        0.96303041877822
C           -5.68403883428024        1.95133422423520       -0.89322342259656
C           -7.17539123865932       -0.08667036127127       -0.45763056556437
H           -4.68020600697633        2.25965488123957       -0.59260153877574
H           -5.58665206052000        1.50074668950329       -1.88501257407723
C           -6.58203624125782        3.19897337830937       -0.94233951585922
O           -7.89872864543327        0.26358093996862       -1.53898547329195
H           -7.63676228573338        2.90577281702152       -0.85999462569722
C           -6.27057890287849        4.13233763500211        0.22605809478235
C           -6.38679892395966        3.93702863392083       -2.26654683661929
H           -5.25402545259181        4.51119592291229        0.14527496468865
H           -6.95294127618588        4.97927930925043        0.22868154379351
H           -6.36679288564251        3.61294591762631        1.17624638206988
H           -6.65852333023780        3.31071527639328       -3.11465675921482
H           -7.00153899629925        4.83357886688134       -2.29637350532721
H           -5.34633174666491        4.23286562451493       -2.38159465857876
N           -7.31869796315840       -1.18849067132304        0.13251134361398
H           -6.95217772561839       -2.19854579901352        1.56046385494067
C           -8.23957620910135       -2.20880599142010       -0.30435290083447
H           -9.24998985382070       -1.80731636552274       -0.45500518393182
C           -7.78017920133148       -2.89104997754135       -1.59751096200364
C           -8.28799575548213       -3.26397111022037        0.81348355470035
H           -6.75565498422224       -3.24065623914034       -1.48548729400752
H           -8.42657550862142       -3.73963990362740       -1.80284025068537
H           -7.82581335461266       -2.18955554748406       -2.42621632548706
O           -7.41121406223377       -3.04562066076765        1.78489362368655
O           -9.03421601056559       -4.20386850286122        0.79352663545669
