42
 energy: -62.486132337404 gnorm: 0.000613813173 xtb: 6.7.1 (edcfbbe)
N           -3.08230045642486       -1.62038938541331        1.83359582207450
H           -2.20683316616008       -1.88796412804814        2.26492786545782
H           -3.68945247878258       -2.43258628449774        1.80249011740117
H           -4.54575632740085       -2.43544421503294       -0.55900082048295
C           -2.86216230201166       -1.03934385968911        0.51962698890855
H           -2.28961178851973       -0.11928773301660        0.66976463533120
C           -2.11173186660370       -1.95414064137635       -0.46441068960442
C           -4.22313821547101       -0.62002429886886       -0.00408297489934
H           -2.56821250857368       -2.94355170529336       -0.52540058880745
H           -2.09147609420780       -1.51231260974937       -1.45809334432056
H           -1.08624501138696       -2.08777270005770       -0.12706859714172
O           -4.97609908270231       -1.57222999543714       -0.60660341854070
N           -4.56178173385905        0.57490192329238        0.16334480352055
H           -7.61553677870590        0.91934557434906       -1.85690062913054
C           -5.84966058864349        1.15915060364186       -0.12853805575879
H           -6.04535682075250        1.80479128871775        0.73919807704613
C           -5.69686862942550        2.05047983439210       -1.37272684905579
C           -7.00453444736378        0.16666385917409       -0.19945679984220
H           -4.68326216955862        2.45527993449987       -1.34304407713987
H           -5.75468833478479        1.43073735951451       -2.27425247888536
C           -6.69285434612288        3.22049017892138       -1.44046875249239
O           -7.88194128230865        0.24609181034551       -1.21849006888071
H           -7.67900030014421        2.89470572855918       -1.08730746087132
C           -6.23366954008183        4.36718553199098       -0.54225434162041
C           -6.83046983641472        3.71147198249047       -2.88164917790007
H           -5.28965508307546        4.77184336033239       -0.90033399067491
H           -6.97113467580749        5.16652395615341       -0.53995252155569
H           -6.09380599017546        4.02867771767469        0.48109121139580
H           -7.21613603207867        2.92991394367150       -3.53448533109000
H           -7.51073865410882        4.55827783004663       -2.93093567833954
H           -5.86272771089246        4.02861800232697       -3.26417396274565
N           -7.08142207620982       -0.66968467252367        0.73725972840097
H           -5.99703396367214       -1.51276717842537        1.89835303575966
C           -8.01343353853542       -1.75937031017992        0.85982650018918
H           -8.84676196232228       -1.42728881111287        1.49562003709715
C           -8.57060711559800       -2.36846417016723       -0.42699588487770
C           -7.27448833369579       -2.85507708221937        1.65679359233056
H           -7.75801720753104       -2.55348942342246       -1.12622257249353
H           -9.04792446693928       -3.31364735794388       -0.18086207457064
H           -9.29308187572963       -1.70645830431000       -0.89397490452789
O           -6.11536785463472       -2.45775320803901        2.16807444599592
O           -7.70121060516340       -3.96812803966657        1.79665439260683
