42
 energy: -62.486133507308 gnorm: 0.000480628401 xtb: 6.7.1 (edcfbbe)
N           -2.15244152832723       -1.98102083327412        1.26156833337252
H           -2.07324975960584       -1.50798679794701        2.15624190881477
H           -1.29374408615407       -2.49554741372160        1.10428112368775
H           -4.08003056711810       -2.24819195910253        1.12166644368553
C           -2.38368224207801       -1.01745847069485        0.18794369332511
H           -1.75824017417900       -0.11636998806689        0.25047440106784
C           -2.15660700590425       -1.69483666628374       -1.16460205811781
C           -3.84343984453302       -0.59631955813144        0.27374296455185
H           -2.79077935803466       -2.57488400436827       -1.25272947209380
H           -2.39543674747246       -1.00206674495378       -1.96611707695266
H           -1.11756000057819       -2.00163547286967       -1.26479793625652
O           -4.65465502167556       -1.52255446733078        0.80097562377334
N           -4.16362409026390        0.53891128682437       -0.15745676830752
H           -5.95988165261853        0.05658188348304       -2.33841687581499
C           -5.51552689569948        1.06145400639744       -0.18450499140665
H           -5.74825610755096        1.42188810760879        0.82479408003823
C           -5.53717328015214        2.24201549441170       -1.16562849341967
C           -6.54987580468480        0.01072735324112       -0.51867038577259
H           -4.85926543823664        3.00135607955815       -0.77364254965861
H           -5.12226547962554        1.92165822390486       -2.12657406875332
C           -6.92682398005261        2.85238020425889       -1.38274979390716
O           -6.60467185519601       -0.41801900096305       -1.79878416170044
H           -7.59670223761221        2.08677569839909       -1.79109934111909
C           -7.52898749077807        3.36258185488325       -0.07568199616433
C           -6.82636654264754        3.99125660101198       -2.39673209192048
H           -6.84622536535233        4.05412791217636        0.41324227810861
H           -8.46177639737346        3.88527851294825       -0.27424065430660
H           -7.74211875356717        2.54056233247455        0.60244579144309
H           -6.41260308415467        3.63888608546030       -3.33930260269359
H           -7.80875261352572        4.41367226876826       -2.59275475681663
H           -6.18361495598204        4.78107065853515       -2.01420798953711
N           -7.26762641344416       -0.46149721953163        0.39979360702956
H           -7.74285335767090       -0.52139120435725        2.13654645262520
C           -8.24637348174739       -1.49887440421136        0.16651361809597
H           -8.91951950637904       -1.23659761404950       -0.65942255032079
C           -7.60196493170814       -2.85740509010563       -0.13168706690103
C           -9.06974533519664       -1.63301408253931        1.45606416474511
H           -6.88207514963564       -3.09816112604695        0.64725725854627
H           -8.37403686424372       -3.62124162884677       -0.15989313378954
H           -7.08935081163339       -2.82237034712332       -1.08913402302695
O           -8.54097653782205       -0.98485647748668        2.48672328649012
O          -10.07729046872168       -2.28090985387587        1.52749110071540
