42
 energy: -62.486133513450 gnorm: 0.000479041936 xtb: 6.7.1 (edcfbbe)
N           -1.47940729011983       -1.54497136283137        0.46481301403260
H           -0.93367689749472       -0.77423868941889        0.83714643624242
H           -0.83260590194416       -2.25772667239296        0.14731301061850
H           -3.16307421679457       -1.44075169388780        1.47972990890588
C           -2.32548320757607       -1.09031320837491       -0.63898212103527
H           -1.82844303425583       -0.39494754253304       -1.32863765061631
C           -2.84068098647564       -2.29608088901820       -1.42637608586374
C           -3.52131558266753       -0.38838090051651       -0.03186171772712
H           -3.31438457396915       -3.00668954994856       -0.75228247966762
H           -3.57094641557934       -1.96414630460410       -2.15778499250241
H           -2.01999921811121       -2.79324272153465       -1.93908424276348
O           -3.86004296593313       -0.81186978444635        1.20507712780401
N           -4.13872575926002        0.48907427101189       -0.68503445788852
H           -6.37648265634602        0.51535484390641        2.03772837959841
C           -5.33233032759888        1.08081049328993       -0.11369260552927
H           -5.07309053847389        1.58344745018976        0.83074312559731
C           -5.88381416578844        2.08937339708843       -1.12833816053944
C           -6.36544452087918        0.01081350477256        0.15748855835174
H           -5.10080270490896        2.81884298949495       -1.33902408719411
H           -6.07937379283591        1.52699958052366       -2.04114602452551
C           -7.16217961185340        2.80468161378785       -0.68146973587862
O           -6.89239265218893       -0.03187013843549        1.43386817784279
H           -7.89998054075459        2.05412498890012       -0.37574865854505
C           -6.90824311330020        3.75303613760951        0.48943695597589
C           -7.74322481685873        3.58363803118471       -1.85974648863104
H           -6.15368959766441        4.48958684399623        0.22082031224506
H           -7.82307669114622        4.28001853072403        0.75095778781030
H           -6.56684300405034        3.22081227690641        1.37445676224530
H           -7.97119442097443        2.91242968648516       -2.68355041568007
H           -8.65966144411932        4.09100266981853       -1.56774430236762
H           -7.03204178011193        4.32953685620894       -2.20825864596438
N           -6.68713944346859       -0.76547856411793       -0.76735140846007
H           -8.59534938050285       -0.36844378563647        0.92794591962797
C           -7.62056556568698       -1.85878600120050       -0.70382536970086
H           -7.51224817340267       -2.38675794381851       -1.65857779648009
C           -7.36800780513841       -2.84379601096561        0.44605388438922
C           -9.07968884855140       -1.38201690347676       -0.63294697579697
H           -7.52222748112794       -2.37443851530096        1.41507986084423
H           -8.04173847625934       -3.69179166857637        0.35165104830090
H           -6.34108582825526       -3.19875038376287        0.39436859070377
O           -9.37362730534175       -0.55527845128843        0.37012679069768
O           -9.91186051011474       -1.74484213644692       -1.41440600274329
