42
 energy: -62.486130782735 gnorm: 0.000472738716 xtb: 6.7.1 (edcfbbe)
N           -0.94923282318881       -1.38510554398607        0.45831611158242
H           -0.78435320039850       -1.11976890250307        1.42390663125178
H           -0.04893992129399       -1.49532138336426        0.00683194715169
H           -2.52274556468530       -2.38304126590459        0.50581867472852
C           -1.75994232895535       -0.38053091030215       -0.22913464076458
H           -1.54711040715719        0.64968693383866        0.08371125591964
C           -1.56273543210575       -0.49281858957036       -1.74033339232405
C           -3.22368071719525       -0.68297168753372        0.08441292106421
H           -1.76784205599891       -1.50844362487135       -2.07110255981415
H           -2.24165202228143        0.18756004275745       -2.24505588016746
H           -0.54065994114235       -0.23591365265710       -2.01013929287843
O           -3.42001232696361       -1.98297824753843        0.44420057149612
N           -4.05004144889402        0.23779259571559       -0.03833544674330
H           -5.08793604297358       -2.05042432862292        0.41792943873430
C           -5.46487433265064        0.44716744656442        0.07768744361093
H           -5.58641189896899        1.04607051165870        0.99008351229276
C           -5.75653052950925        1.36258206517528       -1.14002806491787
C           -6.46105060152118       -0.70430894341350        0.18056612083352
H           -4.93454674462979        2.08119890333952       -1.15780013459936
H           -5.67560604708212        0.74876092743445       -2.03978759177595
C           -7.07857447822234        2.13229409018638       -1.18817888411418
O           -6.05737684952493       -1.96344128865560        0.37298638079744
H           -7.88276440745514        1.43025838713770       -1.41261769062935
C           -7.38627857604712        2.84504109137827        0.12506735895653
C           -7.01145029965496        3.14866214809834       -2.32869836212364
H           -6.57035734548154        3.51254170874367        0.39543589286556
H           -8.29275511197252        3.43714190629021        0.02403459621214
H           -7.53476209945755        2.13022296554360        0.93005576065685
H           -6.77800261087181        2.65699793118762       -3.27008828270443
H           -7.96668742619806        3.65609925632602       -2.43681703592783
H           -6.24553682478018        3.89637096910882       -2.13219213504957
N           -7.69048867410098       -0.42084004574907        0.07387340206801
H           -9.16451199524722        0.75315872094730       -0.00526072675139
C           -8.68880626122225       -1.46572337275708        0.16979464576578
H           -8.43516331566740       -2.33160845665750       -0.45386911643509
C           -8.88513172271111       -1.94007533030940        1.61705886741590
C          -10.02468753660482       -0.88039533789870       -0.29596778422115
H           -9.11154668832646       -1.09071934427690        2.25948560300438
H           -9.70995398705358       -2.64607341166162        1.65654774100670
H           -7.97992926555843       -2.42422693933726        1.97366366153007
O          -10.06647873554858        0.44734301956076       -0.24554485703291
O          -10.95904266349961       -1.55424648429752       -0.63158185304202
