42
 energy: -62.486133505261 gnorm: 0.000481274064 xtb: 6.7.1 (edcfbbe)
N           -0.94441313034304       -0.42664787796993       -0.89792722621272
H           -0.26778175419616       -0.99390312908145       -1.39404519249813
H           -0.61337004966474       -0.32129253225529        0.05740984935503
H           -1.95498545255280        1.19697989732016       -1.13240490383507
C           -2.26069888298589       -1.06463096582973       -0.89772087662380
H           -2.47333224852205       -1.36931131854585       -1.93065615650274
C           -2.38394122331371       -2.27951812669699        0.01790225950551
C           -3.28852696238279        0.00893910543827       -0.55408943908198
H           -2.14061394700493       -2.00313176587890        1.04218711117699
H           -3.40656951297402       -2.63984896937750       -0.00663346014861
H           -1.71114840856979       -3.07141072812394       -0.30517854725999
O           -2.88211710285707        1.26295472419374       -0.82557166074602
N           -4.38746627331938       -0.34818669870720       -0.06780109541799
H           -6.72833358407398       -0.33081708862312        2.19448918265853
C           -5.49768717088378        0.51790623202572        0.25587871138951
H           -5.33317165447194        0.90441921798429        1.27308847932521
C           -5.74075554153500        1.68959026599822       -0.70813446088478
C           -6.71540151518222       -0.38458211741173        0.24701936155802
H           -4.85686683132735        2.32588879472490       -0.72892882956907
H           -5.88282235140910        1.25441458478795       -1.69804746472099
C           -6.96653332342439        2.53575082080472       -0.34684560173890
O           -7.27419943597395       -0.67672001348370        1.47849668189537
H           -7.82805730954479        1.87421857177529       -0.20363276657666
C           -6.74507591978034        3.34259409086376        0.93152690309987
C           -7.28435803526119        3.47967401798031       -1.50468123014887
H           -5.87545984400425        3.98782964513790        0.82398310248923
H           -7.61179890118689        3.96691399328752        1.13616749118294
H           -6.58923470733396        2.69840848653960        1.79412752201425
H           -7.48950813053960        2.91410969113269       -2.40997506957650
H           -8.15777441182823        4.08546825832372       -1.27455129924583
H           -6.44352780595335        4.14395955641853       -1.69402073355464
N           -7.13526847235837       -0.82933564847980       -0.84117152219224
H           -9.00400299533217       -0.58550008804301        0.93255419230931
C           -8.24181285649661       -1.72475015061251       -1.05349176541092
H           -8.19403456355322       -1.99676527454050       -2.11430787124694
C           -8.20224166334173       -3.00357066591790       -0.20579315191169
C           -9.59681332827471       -1.03209789745642       -0.84145811510927
H           -8.31236226567860       -2.78501636138980        0.85400559787130
H           -9.00562776008141       -3.66752425204627       -0.51530573518601
H           -7.24888255456392       -3.50414073363949       -0.35829346757301
O           -9.78175647242148       -0.47266247429652        0.35470814837624
O          -10.44785690399041       -1.01068088639750       -1.68394187117538
