42
 energy: -62.486133505882 gnorm: 0.000481234308 xtb: 6.7.1 (edcfbbe)
N           -1.83426614109618       -0.17304632991162        0.83364561392453
H           -1.11328453373608       -0.63054643580758        1.38185021228730
H           -2.40137097599454        0.39211342925096        1.45705237970644
H           -3.91879498907447       -1.52883053177363       -1.86296879916703
C           -2.68977577581393       -1.16354339211402        0.20569040323172
H           -2.15450870594885       -1.54502256641757       -0.67778945144407
C           -3.05247356982568       -2.34908212367238        1.11906031548219
C           -3.97624262858490       -0.49749750886108       -0.23167651683196
H           -3.60468077132965       -1.98335962456495        1.98152770930888
H           -3.66690693688837       -3.07825564250564        0.59691589305491
H           -2.14401964800517       -2.84234780778124        1.46002288796229
O           -4.49194011992575       -0.88514774555996       -1.42616754907644
N           -4.51302649511522        0.31533653503900        0.55792984825280
H           -8.05478123554768        1.69422393564641        0.61123005083143
C           -5.72854151799290        1.04692594319037        0.31225246695244
H           -5.82437797265827        1.72788851996950        1.16964350427273
C           -5.61739320335423        1.86545042216618       -0.99446302256243
C           -6.94584591725392        0.14771764123568        0.29971037019459
H           -4.63931228461747        2.35309375279371       -0.97162094500782
H           -5.61609564250646        1.15800706917376       -1.82523665943316
C           -6.69104741866483        2.92912845142060       -1.24948763874165
O           -8.14798766456546        0.74257454819942        0.48051419306306
H           -7.67631815587068        2.45263825805338       -1.30710035945444
C           -6.70778399240584        4.01161941696058       -0.17003165336501
C           -6.42229396368489        3.57575229095916       -2.60930028545367
H           -5.73501773635891        4.49542013363867       -0.11367215498913
H           -7.45126864881515        4.76885077213782       -0.41005127298815
H           -6.94189969834640        3.61640675711972        0.81712261706213
H           -6.42955541762689        2.82817283516969       -3.39886507160698
H           -7.18379215587505        4.31896999556168       -2.83450460420216
H           -5.45187670666910        4.06724962608913       -2.61056086153734
N           -6.80202793075290       -1.09677220098749        0.21690937271783
H           -5.75741003156193       -2.39823320815518       -0.39429806770988
C           -7.88210608079769       -2.05183369760909        0.22300169937225
H           -8.42963322914888       -2.02278997670287        1.17263979774833
C           -8.87280597691275       -1.86244921216650       -0.93245473909192
C           -7.22984223164359       -3.43487786528078        0.05907198904329
H           -8.33545581584719       -1.82918019834577       -1.87874756020482
H           -9.56747645324453       -2.69771400834906       -0.94715054463506
H           -9.42508652785991       -0.93580194459908       -0.80496497798826
O           -5.97130757452701       -3.36566305247256       -0.36223166723336
O           -7.80655878597863       -4.46757097866271        0.25648818933848
