42
 energy: -62.486133506397 gnorm: 0.000480563558 xtb: 6.7.1 (edcfbbe)
N           -0.71135270675741       -0.08640177172815       -0.14577218979068
H            0.13846411360596       -0.37542028437878       -0.61445504494364
H           -0.63848137465453       -0.37210826501506        0.82667992145938
H           -1.82794816871470        1.46635334131760       -0.00681954440891
C           -1.88682868684697       -0.70372886616869       -0.75753197676155
H           -1.79389090832496       -0.56683916604136       -1.84317912250884
C           -2.05244277952846       -2.19062719063098       -0.44958915499548
C           -3.09437743735761        0.11936577214211       -0.31855585121695
H           -2.24405832425701       -2.33626248688559        0.61082359977471
H           -2.88560218502979       -2.60252674507672       -1.00883324417037
H           -1.14793866288977       -2.73051607513588       -0.72391295508536
O           -2.80386031639289        1.38156049852222        0.02244968526880
N           -4.22642910068236       -0.42544020923838       -0.28481664859186
H           -5.13229944907671       -1.78267873012692       -1.01551128198223
C           -5.48405812443299        0.22642878173990        0.01622529715197
H           -5.56020737794053        0.40068374420821        1.09453665423607
C           -5.63462511169596        1.56797930009456       -0.73062071085845
C           -6.55810287002711       -0.76914050556535       -0.40356882300321
H           -4.82933815581633        2.22055530462995       -0.39163074612696
H           -5.48118594277905        1.37166248037713       -1.79569924259563
C           -6.96340142530336        2.30430204750206       -0.54793836746019
O           -6.11259366440554       -1.86658658134467       -1.02252022850035
H           -7.76647701868032        1.68950017114368       -0.96047632331962
C           -7.26027426489234        2.58676313687684        0.92199570870710
C           -6.91475907284751        3.61589065566020       -1.33130714943235
H           -6.45161178707113        3.16296204547128        1.36783088636583
H           -8.18004020922787        3.15907729602533        1.01408663871716
H           -7.37812276695705        1.66175681569442        1.47970745488684
H           -6.71159983799588        3.43103296224078       -2.38363884568434
H           -7.86644044971203        4.13545948380148       -1.25395990130702
H           -6.13506860082891        4.26652510832773       -0.93998524386557
N           -7.77562208563967       -0.52768523935965       -0.17418238326440
H           -9.13337690473684        0.57104929743092        0.39319618826884
C           -8.80783065927123       -1.45707016532371       -0.58258411890249
H           -8.66326899533576       -1.79699733518336       -1.61581824805955
C           -8.86828928065535       -2.68463722977315        0.33461630335624
C          -10.15236536384398       -0.72478996102326       -0.48261789844302
H           -8.97443634361913       -2.36902583383026        1.37078580530648
H           -9.72274351906477       -3.29647336392407        0.05931019052681
H           -7.95690382728613       -3.26786128748706        0.23206918650504
O          -10.08240371329870        0.42897482916552        0.17085318438218
O          -11.17399789929300       -1.16709166083269       -0.93070645638886
