42
 energy: -62.486133503912 gnorm: 0.000480690603 xtb: 6.7.1 (edcfbbe)
N           -1.42757162474877       -0.22207634843759        0.50218783646149
H           -0.64396304296685       -0.75632534995604        0.86358725494874
H           -2.01016116472691        0.05015536924720        1.28726910594816
H           -2.83257631478204       -0.03534078510174       -2.55797801605160
C           -2.21424239836340       -1.04107825189034       -0.40663566190894
H           -1.61208369237242       -1.18200786535399       -1.31708160933361
C           -2.60108841411938       -2.41724417590570        0.15476950760102
C           -3.47238514849060       -0.26770324431604       -0.74144062772414
H           -3.22393467414237       -2.28354380247289        1.03523405631529
H           -3.15986000776197       -2.98873685134927       -0.58239658306856
H           -1.70660694758707       -2.97554793431902        0.42380580548276
O           -3.63432362460693        0.12428403451595       -2.04465416418830
N           -4.29770061818852       -0.06555316996853        0.17749855668951
H           -5.63033142262048       -0.14477015466836       -2.19617684952766
C           -5.53367784585981        0.67897442926573        0.07454336470151
H           -5.83203115952848        0.85394069391322        1.11318175610792
C           -5.44259369208360        2.02271208655646       -0.66234076425355
C           -6.57364134543251       -0.23562066523775       -0.53490391023886
H           -4.71402045529379        2.64271066698524       -0.13463756046938
H           -5.06693521617839        1.87283630259909       -1.67657895381315
C           -6.78530655756954        2.75929251820247       -0.74299505039184
O           -6.43077995726076       -0.55478476770540       -1.83366600494034
H           -7.51123253698287        2.11234476619346       -1.24917617312247
C           -7.33406246799263        3.10834999811296        0.63795978734053
C           -6.60868776628490        4.02977311073018       -1.57383497028479
H           -6.59444884470737        3.66275929155581        1.21182926723490
H           -8.22344110912834        3.72601129454988        0.53882716284923
H           -7.60803510828588        2.21298319736266        1.18880573877541
H           -6.23833569990125        3.79574095833844       -2.56975661742964
H           -7.55684650040712        4.55140246878419       -1.67720836124645
H           -5.89944005133607        4.69979409626732       -1.09233938323249
N           -7.48841959091837       -0.69398173286759        0.19927530183874
H           -8.48721405300631       -0.60821176067054        1.72004865894834
C           -8.48603752276875       -1.60687706455253       -0.31415644896820
H           -8.84317057185538       -1.30961986334786       -1.30812558718031
C           -7.94353831598177       -3.03863316108271       -0.38970153257682
C           -9.66892274332119       -1.58993624746208        0.66463356855437
H           -7.54065142350546       -3.33301789837478        0.57735095011327
H           -8.74913800330408       -3.71435224041368       -0.66254772127044
H           -7.15402366593729       -3.09635233306446       -1.13486808657608
O           -9.40375510158162       -0.95981443982223        1.80293861011618
O          -10.72097485577164       -2.11496088335073        0.42838944264552
