42
 energy: -62.486133510742 gnorm: 0.000480125502 xtb: 6.7.1 (edcfbbe)
N           -0.82873033265195       -0.23839560914710       -0.93851467449656
H           -0.05343468215708       -0.82049583548173       -1.23126638021940
H           -0.53541351679207        0.26635914407193       -0.10644467355210
H           -2.08591619791873        0.98544108659023       -1.69426169843288
C           -2.00869199524812       -1.04671679588360       -0.63667755768838
H           -2.13799100422121       -1.74870158027832       -1.47206451652173
C           -1.93099709939306       -1.83001435802163        0.67092391530038
C           -3.21342007078242       -0.10424352495285       -0.66333097086763
H           -1.77466663228686       -1.14904637831717        1.50477508263305
H           -2.86359135770695       -2.35875090077028        0.83574997357523
H           -1.11160554005083       -2.54516198091423        0.63715146952655
O           -3.02407554636797        0.99434663440697       -1.41117294774858
N           -4.23746907868894       -0.43500467515604       -0.01556958180394
H           -5.16185059636737       -1.53435565317494       -1.50509190011429
C           -5.51110988640973        0.23731010950939        0.06549268324263
H           -5.72695471403226        0.31868128678493        1.13579501532206
C           -5.60061764693773        1.63418946724926       -0.58024408404615
C           -6.55161681739094       -0.68822803717517       -0.53858752889758
H           -4.79322327494389        2.24115942240475       -0.16608683893865
H           -5.42213880426306        1.53522600646569       -1.65318532474623
C           -6.92979631995825        2.36432901967462       -0.36646826615313
O           -6.13028510026003       -1.56377348978762       -1.46802255410903
H           -7.73703119326077        1.75530747976416       -0.78271279455813
C           -7.21866503863960        2.61533984030387        1.11131189916605
C           -6.89446143165176        3.69347614321681       -1.12041587825661
H           -6.40907731200904        3.18384455545924        1.56515400475161
H           -8.13855543700478        3.18473839289500        1.21855994478786
H           -7.33580534384400        1.68188033982063        1.65476987445551
H           -6.71058014254714        3.53291984468295       -2.18019333262198
H           -7.84301713710237        4.21367723114870       -1.01342423612645
H           -6.10579749869328        4.33290489802925       -0.72879154783319
N           -7.75136016237058       -0.59301365410974       -0.16576903697797
H           -9.08520019705747        0.37671100252106        0.62482427329565
C           -8.79004790979022       -1.42522668281895       -0.73209251920446
H           -8.68282125660335       -1.53590612892647       -1.81850428947359
C           -8.80183373048525       -2.81800616478084       -0.09200440924304
C          -10.13508639735224       -0.74643068594387       -0.43416221589533
H           -8.86237004891393       -2.72773680717833        0.99070381240217
H           -9.66425148034332       -3.37129136602412       -0.45287963357952
H           -7.89226969380160       -3.35308173222340       -0.35284245674583
O          -10.04200240193797        0.26982479224927        0.41467991563351
O          -11.17236123322749       -1.11611045151849       -0.91017499808712
