42
 energy: -62.486133510577 gnorm: 0.000479952590 xtb: 6.7.1 (edcfbbe)
N           -1.75382350738846       -0.47982320498327        1.37467896451565
H           -0.86598495210711       -0.95632088435440        1.26797225610720
H           -2.12259130932194       -0.72935535427250        2.28862406545369
H           -2.55950648959330        1.27600836172628        1.09640447941752
C           -2.69632054114955       -0.90211555419986        0.33732661851477
H           -2.17480811333848       -0.81135339204961       -0.62515494226899
C           -3.22909330200987       -2.32379154738396        0.48968238001246
C           -3.82209696244990        0.11974023471738        0.32119539653544
H           -3.74187781897080       -2.43510095713191        1.44177067336377
H           -3.93905836923884       -2.52962791999752       -0.30322333758463
H           -2.41337445060593       -3.04200535841847        0.43944872648077
O           -3.47136924361437        1.34848743181736        0.75146643058475
N           -4.96455517757494       -0.22248096706925       -0.06900070662286
H           -8.17729509411248        1.35850820121929       -1.27446943380362
C           -6.06650432533980        0.70746190928615       -0.14737023285536
H           -6.21312348655298        1.19014742047537        0.83192568802890
C           -5.84729272825549        1.80470565985098       -1.21106308920518
C           -7.29671840115481       -0.13404695605025       -0.43691668223603
H           -4.77374825038470        1.96906626911906       -1.30972050694797
H           -6.19918053735879        1.43577347121547       -2.17911570041974
C           -6.50883970283068        3.15054658873967       -0.86706357413200
O           -8.36002434034026        0.43955753797607       -1.04154479065094
H           -7.47603783337814        2.98089389728632       -0.37453953254098
C           -5.63176418569159        3.94169754818651        0.10108843881405
C           -6.75257555827863        3.96263779274390       -2.13858613814922
H           -4.70123168641497        4.22698594888926       -0.38401857018176
H           -6.14143353220844        4.84489338281862        0.42887721927258
H           -5.38507844248118        3.34587926039939        0.97575611108971
H           -7.41838449260212        3.43922317785152       -2.82276498864741
H           -7.20166934631057        4.92275397089201       -1.89542071091424
H           -5.81182853923668        4.14635325114345       -2.65251636605704
N           -7.28245105372512       -1.33014765380430       -0.05744783820003
H           -6.32016683161360       -2.61168216329867        0.67505551061434
C           -8.35673218018243       -2.27172506479108       -0.23307678802086
H           -9.28449924827612       -1.91342165157316        0.23138174933066
C           -8.63647434449141       -2.60398659136767       -1.70241867541005
C           -7.91222139162826       -3.55931394246926        0.48761561494242
H           -7.71197836793892       -2.89582128716434       -2.19663492592923
H           -9.34293224239675       -3.42786270034365       -1.75264326051790
H           -9.05279057750423       -1.73777301019293       -2.20963723388878
O           -6.65800906506165       -3.51498900374296        0.91274606344031
O           -8.63074528410478       -4.51060232955669        0.63026738638125
