42
 energy: -62.486133511092 gnorm: 0.000479538035 xtb: 6.7.1 (edcfbbe)
N           -2.03731257436171       -2.19194003319071        0.86781981200408
H           -2.05494070607255       -2.02298992887894        1.86817557304702
H           -1.14627016134751       -2.61586189403874        0.63848513195300
H           -3.91065014142322       -2.46889958549861        0.49659928470486
C           -2.22562831778786       -0.94539243927908        0.12916018490368
H           -1.69231100517228       -0.08643281680861        0.55833587859123
C           -1.78416671344626       -1.13183277908078       -1.32312474386529
C           -3.71596554481294       -0.63786168426726        0.14189414448205
H           -2.32047833708137       -1.96414642822053       -1.77436258093788
H           -1.99020098103307       -0.22560877167421       -1.88490052069905
H           -0.71712209963954       -1.33829457801590       -1.37092977899979
O           -4.50407329911444       -1.71222862095680        0.30896213859154
N           -4.08774067528610        0.54945499492074       -0.02666026022809
H           -5.62814062050044       -0.38088308540156       -2.07492923335701
C           -5.46864570370088        0.97645031541184       -0.08090152057171
H           -5.71249807731522        1.38170149946652        0.90701055826129
C           -5.55772878643543        2.10111267155062       -1.12760933774303
C           -6.46328199233969       -0.12198471444920       -0.37626698141258
H           -4.90097312209044        2.90608654395543       -0.79600626617075
H           -5.15683354467049        1.73460546842145       -2.07796594392527
C           -6.97397933272693        2.64070800747679       -1.35332734246199
O           -6.37818996370946       -0.73008129986738       -1.57732712441931
H           -7.61737937516257        1.81981753524822       -1.69021905140123
C           -7.56906305886542        3.22103773221658       -0.07330686392522
C           -6.93869722260783        3.70569668502815       -2.44855691610956
H           -6.90486172741001        3.97285526060113        0.34754985820942
H           -8.52642873314636        3.69012780683281       -0.28696278694902
H           -7.73401438893380        2.44249515490924        0.66618356240482
H           -6.52840523839678        3.30202193252812       -3.37183383033332
H           -7.94105318885449        4.07313128081075       -2.65346419827554
H           -6.32198362381417        4.54624615238441       -2.13766051401561
N           -7.34087730171284       -0.40184960064316        0.48262965810324
H           -8.26508546529439        0.00899417809912        1.98407772073926
C           -8.32766400447697       -1.43324588095841        0.24961671793737
H           -8.72745113865228       -1.39593254934896       -0.77150938673635
C           -7.74718839973314       -2.82856891408796        0.50514829824595
C           -9.47194319319944       -1.19913838678918        1.24445068375049
H           -7.33201128026354       -2.87708780339245        1.50958832240013
H           -8.53384148741964       -3.57094066044511        0.40476009829389
H           -6.95603299932787       -3.03170626095093       -0.21142256541817
O           -9.17078250527967       -0.31982281881926        2.19401176576199
O          -10.52429523942575       -1.77183735867329        1.18372319428202
