42
 energy: -62.486133504966 gnorm: 0.000480992036 xtb: 6.7.1 (edcfbbe)
N           -1.02429103115512       -0.97557152722344        0.28588203693165
H           -0.13577319939360       -1.17720240945708       -0.15659275255043
H           -1.25148224925488       -1.76493742904327        0.88488941343487
H           -1.92383706761501        0.44538777498994        1.22270438537710
C           -2.07734376382956       -0.79631541530586       -0.71438478962193
H           -1.67995120440745       -0.13041131991822       -1.49095434365996
C           -2.57311561946014       -2.08607471016040       -1.36333342580231
C           -3.21854267106361       -0.04590407800500       -0.04361021534430
H           -2.91377645441437       -2.78197579178430       -0.59893598674651
H           -3.41128708125759       -1.85649406186046       -2.01220305986369
H           -1.77885128507420       -2.55469422905100       -1.94081732068844
O           -2.86850873338925        0.64335118366105        1.06482750001661
N           -4.36815023688353       -0.09423331049982       -0.54396109180247
H           -6.45591102476142       -0.12785676238759        2.09610127765810
C           -5.46846285148909        0.65132889678993        0.01814180115091
H           -5.21121856081750        1.07760065004883        1.00153971450626
C           -5.84234921106810        1.77334354602171       -0.96227356129337
C           -6.62779087643068       -0.30720994356074        0.16076715354875
H           -4.97142149381030        2.41792148075867       -1.09589326944337
H           -6.06471902856020        1.28667651279561       -1.91153099701823
C           -7.04548517853285        2.61133341065465       -0.51844093617354
O           -7.02915347877574       -0.57415038431539        1.46030462471988
H           -7.86386623217653        1.93496186455086       -0.24801317922465
C           -6.71490527886317        3.49420289389357        0.68373522782661
C           -7.51558298733556        3.47878399615706       -1.68421804603801
H           -5.89672242882899        4.16968795112884        0.44201422913085
H           -7.58101472022590        4.09082017885758        0.96086813601560
H           -6.42506896132767        2.90395741161872        1.54988123867198
H           -7.80066295254386        2.85732037586441       -2.52898332506205
H           -8.37638460946199        4.07537133281057       -1.39178800675633
H           -6.72152979632334        4.15178899815451       -2.00113699691646
N           -7.14263092720224       -0.81429161456637       -0.85588298250560
H           -8.80822395104295       -0.57970662344828        1.09817115531856
C           -8.21460114481080       -1.77133389513222       -0.91467663931485
H           -8.26914700019724       -2.08067496703005       -1.96481065285158
C           -8.01060851327728       -3.01362076687389       -0.03616094441631
C           -9.57608443932276       -1.14705009976965       -0.57121430758991
H           -8.01559765370558       -2.76012731469922        1.02177379436081
H           -8.80514655326111       -3.72950237192304       -0.23181756604721
H           -7.05368677496027       -3.47005127306765       -0.27889853349138
O           -9.65239920394897       -0.53527725180689        0.61114202643924
O          -10.52090482962496       -1.22119659082682       -1.30327563861765
