42
 energy: -62.486133512920 gnorm: 0.000479955056 xtb: 6.7.1 (edcfbbe)
N           -2.19740774569246       -1.39297716245556        1.54153119299970
H           -1.68797356646169       -0.56181778979967        1.82255556635758
H           -1.54571589199428       -2.16823969372525        1.51879501613617
H           -4.01009726615165       -1.08345083890110        2.18450113201733
C           -2.82418264713089       -1.20058898119097        0.23608656254555
H           -2.18615194108112       -0.69384885150365       -0.50077050570380
C           -3.26930564175922       -2.55367417866399       -0.32255005026680
C           -4.07471315310836       -0.36865121838991        0.45432925618809
H           -3.91223454205870       -3.05933285923053        0.39503711828886
H           -3.81853634676989       -2.40326770265204       -1.24723716103477
H           -2.40571819110982       -3.18404044159141       -0.52404540632422
O           -4.63141828418499       -0.52796234312350        1.66724681270776
N           -4.46292104700880        0.40340318062500       -0.45724299477138
H           -7.56813190718727        0.98087297912406       -2.07053163818175
C           -5.73508234207181        1.09628326056730       -0.40679185614028
H           -5.85693063538294        1.57203126413974        0.57996621341623
C           -5.71822771204400        2.16940598614822       -1.49894754200656
C           -6.86955013633028        0.08717141822298       -0.51601285672736
H           -4.72666679027359        2.62453904217716       -1.47360244772718
H           -5.80240200964573        1.69110524744364       -2.47981410178764
C           -6.77828899992973        3.26874317218855       -1.32265897001147
O           -7.76547679371317        0.21414432363442       -1.51788049081053
H           -7.72212394620113        2.82615707990680       -0.98079682257045
C           -6.33398764194027        4.28269047256655       -0.27003214340112
C           -7.02776089187202        3.97783866638986       -2.65355917184325
H           -5.42561069991159        4.78740739682444       -0.59190742211864
H           -7.10656580366310        5.03222868570066       -0.11485901400294
H           -6.13725106716609        3.79653563496381        0.68222067326555
H           -7.40611750865675        3.28877313784604       -3.40685276041638
H           -7.75637153707566        4.77530314586959       -2.52891249325921
H           -6.10332328049411        4.41466526809082       -3.02491031037110
N           -6.92827749365698       -0.84715297185569        0.32248389011076
H           -6.31438421314115       -1.57564617516714        1.89801255164841
C           -7.92932254211510       -1.88374177683575        0.27931389726011
H           -8.94289606822673       -1.46376023729139        0.23670493738705
C           -7.74084360653807       -2.83315393256243       -0.90941740022769
C           -7.79223645003152       -2.69655711051546        1.57701048452095
H           -6.71847839851634       -3.20643197352527       -0.92579619415400
H           -8.42452720998585       -3.67112725305408       -0.80664337667183
H           -7.94306892357804       -2.31173437556691       -1.84113108276218
O           -6.76259941151790       -2.34514336837274        2.33180658328835
O           -8.54331096561830       -3.58902396561606        1.86423755020663
