42
 energy: -62.486133516633 gnorm: 0.000479502043 xtb: 6.7.1 (edcfbbe)
N           -1.76481259357576       -1.97950404166218        0.55601296233597
H           -1.42929288185600       -1.58151397537182        1.42715238964019
H           -1.00505627596598       -2.50680095078517        0.14193955496594
H           -3.66806877126431       -2.23838952241021        0.84981411250482
C           -2.22100519253320       -0.92869672706208       -0.35324082007316
H           -1.58652552470381       -0.03208956714438       -0.35377962587952
C           -2.31134837343764       -1.47948366595123       -1.77661917956966
C           -3.62107085465494       -0.52785205760503        0.08197292680225
H           -2.94731975726421       -2.36192690380269       -1.79657105162727
H           -2.73642928257383       -0.72441846981194       -2.43051376262744
H           -1.32291222985086       -1.75041977749546       -2.14212704551372
O           -4.29250401065138       -1.49173247737914        0.74175484048085
N           -4.03821631461820        0.61973078974679       -0.20214789134286
H           -5.88216917640022        0.25169823072771        2.28906178054637
C           -5.37873698666335        1.10168231998214        0.04792284532828
H           -5.29388100981391        1.81394099449154        0.88251979878237
C           -5.82409671738016        1.85733696336583       -1.21097264408712
C           -6.37771236545501        0.02818329307372        0.41945479233667
H           -5.02171379161009        2.54610155670395       -1.47833803297045
H           -5.92854892731089        1.11979290480630       -2.00601772853688
C           -7.14268461753784        2.62138954946032       -1.06145422145252
O           -6.57874836992296       -0.17049030212947        1.77322104595402
H           -7.92017174575096        1.91756929789485       -0.74791923166937
C           -7.04699194606926        3.74442959427303       -0.03038889337951
C           -7.54037465159149        3.19757406994880       -2.41917726507310
H           -6.21791324956065        4.40841938745897       -0.26708475470995
H           -7.96424994251251        4.32868507594118       -0.02918768073021
H           -6.90338556586301        3.35506592654242        0.97468017371064
H           -7.63738312308410        2.40373058060220       -3.15497238823011
H           -8.49297880673574        3.71701837329870       -2.34917258871322
H           -6.78821373501847        3.90262814370007       -2.76733269184000
N           -6.98613941749020       -0.58436625780527       -0.48435412339192
H           -8.37853355744966       -0.35965254965619        1.66928875028141
C           -7.95008747150521       -1.64142427480710       -0.32679082311953
H           -8.11605244397804       -2.03399349773146       -1.33701883165114
C           -7.50229876861594       -2.78732541070272        0.59058575897946
C           -9.30689969125704       -1.11839782054621        0.16728596032486
H           -7.38881756943486       -2.45323718365305        1.61920922100309
H           -8.23697675472204       -3.58795157248498        0.55513153200314
H           -6.54309878706301       -3.16574370673176        0.24598587839764
O           -9.28243105772497       -0.43254242998072        1.31008412547643
O          -10.33033889830817       -1.32904929696836       -0.41896213809880
