42
 energy: -62.486133508102 gnorm: 0.000480396058 xtb: 6.7.1 (edcfbbe)
N           -3.27551064719798       -1.96425605068390        1.79300204386192
H           -2.43703054166735       -2.22464203062789        2.29576252666318
H           -3.75577596232476       -2.81199745748805        1.51059116997403
H           -4.50249456807266       -2.42635081254750       -0.65284666032698
C           -2.96554419038216       -1.09481725449887        0.66989662258781
H           -2.49752811010794       -0.19557708399282        1.07946524211304
C           -2.03532484215829       -1.71736550503862       -0.38524268772640
C           -4.29238761147100       -0.65872808683168        0.07559251768049
H           -2.43541647767106       -2.65313465104952       -0.77820725363667
H           -1.88794833164118       -1.02689322078642       -1.21229143748398
H           -1.06708010839534       -1.93233377933602        0.06251975344680
O           -4.94846765509100       -1.57019241366527       -0.68076679694495
N           -4.67012902976020        0.51303438038271        0.30730802427960
H           -7.95028676918357        1.38274401239500       -1.40820033414920
C           -5.94051542473995        1.11381345023947       -0.00788760323038
H           -6.16363382740615        1.73415223871814        0.87313262243525
C           -5.74499343966090        2.04534734967783       -1.22457849417451
C           -7.11948666938468        0.16581015837748       -0.16933983310588
H           -4.67767885420732        2.26726951976365       -1.28478188379112
H           -6.00374565551783        1.50402952425228       -2.13990237284570
C           -6.50975966145288        3.37684263693217       -1.13852737682331
O           -8.14190054095440        0.54666649915291       -0.96547916172659
H           -7.50990577402261        3.21316016140816       -0.71599672935665
C           -5.77606577280674        4.35340547766305       -0.22173162484076
C           -6.66777249020006        3.98359688622579       -2.53234889190866
H           -4.80787283355728        4.61113605628407       -0.64479475330348
H           -6.35238333767135        5.26753627513537       -0.09942439484219
H           -5.61231732092850        3.91621489994577        0.75989666276279
H           -7.23725307195640        3.32780233499227       -3.18896621223654
H           -7.18544514522415        4.93811705999434       -2.47465883457327
H           -5.69146908914090        4.15138371363313       -2.98144128763737
N           -7.12159064537129       -0.90566384290404        0.48783042170896
H           -6.14480309682071       -2.00959520621825        1.49600485336343
C           -8.14860572175040       -1.91512202178786        0.43033958795747
H           -9.05377696775528       -1.56411327754683        0.94365239121151
C           -8.52306960557295       -2.37474123701207       -0.98207484982970
C           -7.60873330599365       -3.12780893015882        1.21145273667272
H           -7.61780832444005       -2.59109797735051       -1.54602949562681
H           -9.12316841835119       -3.27774719982292       -0.90848943238224
H           -9.08693310744683       -1.60512244791065       -1.50028812800520
O           -6.39591039608511       -2.94143992765211        1.71717516654412
O           -8.21866795954350       -4.15534828171336        1.32960980718491
