42
 energy: -62.486133509177 gnorm: 0.000479917843 xtb: 6.7.1 (edcfbbe)
N           -1.17022323956338       -0.77709677991828       -0.61250816030191
H           -0.49457471501851       -1.52141395408952       -0.73586073726009
H           -0.81980630243936       -0.16653691989038        0.12022990149123
H           -2.19869915844838        0.44011504075370       -1.66752694279844
C           -2.47300116946150       -1.31540947412532       -0.22288758066316
H           -2.69938728731091       -2.14207377273088       -0.90855229669603
C           -2.55538813808556       -1.81868617668837        1.21463316212054
C           -3.50864299304532       -0.22981836539703       -0.50063044961441
H           -2.29602741765864       -1.01967137081130        1.90588468560952
H           -3.57096957024794       -2.13469957384452        1.42537655845307
H           -1.87510938084321       -2.65438839814534        1.36558567702817
O           -3.13370273375700        0.64481100874461       -1.46038898901275
N           -4.59363953574071       -0.26225201483193        0.12469416068180
H           -6.10878583285884        0.20424023465422       -2.35875620441313
C           -5.71345777200001        0.64089691126377       -0.00344318658078
H           -6.02042867808518        0.83152529525261        1.03126500960082
C           -5.51136629756270        1.97632939727007       -0.73008335861602
C           -6.80460870562630       -0.20966581660618       -0.62448855635503
H           -4.74852304601083        2.54179291534633       -0.19076991766556
H           -5.12244240840823        1.81274596971117       -1.73850142167483
C           -6.79811955313415        2.80844658995842       -0.81713456096584
O           -6.80766163425277       -0.33596016914349       -1.96650060193105
H           -7.58715111952158        2.19914171830519       -1.27364991245606
C           -7.28075551415102        3.25770598367930        0.55999126523918
C           -6.55393157852254        4.02565615806289       -1.70864098305130
H           -6.49356579163539        3.79866333807973        1.08107997432116
H           -8.13846222357144        3.91823406469655        0.45646723917257
H           -7.58330060553858        2.40882969551520        1.16713404041237
H           -6.24410342874087        3.72277927829991       -2.70683302557375
H           -7.46056691406292        4.61886214840111       -1.79949223083224
H           -5.77396837582300        4.65411163367595       -1.28390718764572
N           -7.59559108913532       -0.83291401420226        0.12913003873016
H           -8.34779022131567       -1.08307869687214        1.76129514996615
C           -8.60290042132322       -1.72966435297909       -0.39150267536020
H           -9.11629339956372       -1.30968338070980       -1.26544991715607
C           -8.00048971320054       -3.08627817839279       -0.77461961122826
C           -9.62839702439572       -1.95781106609166        0.72896053935304
H           -7.44904228040847       -3.49665954988005        0.06883175779647
H           -8.79918381757681       -3.77002658846455       -1.04796472372521
H           -7.32227214345387       -2.96532263518592       -1.61538854448821
O           -9.22387622758375       -1.51050414660731        1.91129558008828
O          -10.67998379093893       -2.50729778165455        0.55256217655834
