42
 energy: -62.486133513285 gnorm: 0.000479599226 xtb: 6.7.1 (edcfbbe)
N           -1.24478002320478       -1.04990182323510        0.98766677266520
H           -0.26394917575728       -1.22638325119197        0.80766039693105
H           -1.63316433814703       -1.88646071811573        1.41468459595873
H           -2.39230784046090        0.29399509230044        1.76654442775706
C           -1.96011741298845       -0.74693667230771       -0.25040253037186
H           -1.36583944191946       -0.00105708228128       -0.79451755378363
C           -2.20478431963353       -1.95271843567088       -1.15580183754112
C           -3.26246197479608       -0.06553923471711        0.14600682232780
H           -2.83079063915019       -2.68269393186447       -0.64717990516683
H           -2.71151561187837       -1.63591206691384       -2.06082247499370
H           -1.25966091218628       -2.42128346999549       -1.42368870123236
O           -3.24923193164660        0.51912110922625        1.35192316131217
N           -4.23543665507045       -0.06248896485274       -0.65221035581493
H           -5.45674647115117       -0.87104473043338       -2.10198613887656
C           -5.48824173713699        0.57700863366748       -0.30123223537706
H           -5.55082191244068        0.80826882840148        0.76659307167527
C           -5.65162444256277        1.86191581310322       -1.13031895167720
C           -6.56542421045568       -0.41759226002767       -0.66338959221986
H           -4.84147959361077        2.54205216342565       -0.85796023489375
H           -5.52928116809326        1.60610668437201       -2.18649866937026
C           -7.00001858727792        2.56201782908225       -0.93239605877738
O           -6.35900121796877       -1.08545894137506       -1.80856928491951
H           -7.80088427832739        1.84578975111162       -1.14413338990435
C           -7.17057244837660        3.07067347831775        0.49645468146864
C           -7.11527251949321        3.72427902774958       -1.91773165243237
H           -6.36631802587233        3.75758566003451        0.75263534212982
H           -8.11677414984631        3.59710123481584        0.59462348432350
H           -7.16759143962652        2.24961025517806        1.20742690094907
H           -7.02865794099192        3.37398081244658       -2.94386900860590
H           -8.07624851222836        4.22019862290338       -1.80660182831555
H           -6.32947026292210        4.45477170729509       -1.73593562946967
N           -7.54774591127826       -0.59437838244121        0.10485339246323
H           -8.65366759154889        0.09357933724235        1.36192371840988
C           -8.60441896180584       -1.52864702714134       -0.21919734874751
H           -8.85639727120535       -1.50830272736753       -1.28721076149876
C           -8.22772753248505       -2.96141292384354        0.17139099593766
C           -9.84425716716799       -1.11129394513945        0.58599257356586
H           -7.92157986727798       -2.99261388107237        1.21512872455739
H           -9.08958392320099       -3.60808639564546        0.03282812059762
H           -7.40758612500449       -3.31143800023877       -0.45052852000015
O           -9.60411077175574       -0.14812859178524        1.46730455036989
O          -10.92064694172224       -1.62030840862137        0.43947592641829
