42
 energy: -62.486133506712 gnorm: 0.000480003339 xtb: 6.7.1 (edcfbbe)
N           -2.07809183539983       -1.52330277880622       -0.80888012380889
H           -1.90389954840789       -1.02916502452751       -1.67787967353915
H           -1.99105498462024       -2.51684122697711       -0.98920488463602
H           -1.51002726022547       -0.33979786207425        0.58276251444802
C           -3.40250091813841       -1.20464778823683       -0.27577970949544
H           -4.18314864804520       -1.20662261713958       -1.04641517840982
C           -3.75966739079888       -2.21289452645284        0.81821566355552
C           -3.30061901822709        0.16478474346006        0.41121166240181
H           -2.98895876468069       -2.21211041647960        1.58623252808153
H           -4.70808961797922       -1.94179644215208        1.27375281453784
H           -3.83733514896279       -3.21527435693226        0.40107349076441
O           -2.07782017509628        0.39214592494688        0.90412426437478
N           -4.18774209061550        1.01472036682468        0.67064105882604
H           -5.73570723775120        0.58401628336070       -2.19070908548542
C           -5.52655051465516        1.18730408606376        0.19561356128628
H           -6.09521760231945        1.42848812811959        1.10325458554042
C           -5.52587343353510        2.43130087266757       -0.71208269862631
C           -6.24902797679441        0.00743491751638       -0.43044336967553
H           -5.02896906178513        3.22169425715439       -0.14797729885862
H           -4.90001823779200        2.24480512476626       -1.59312543721664
C           -6.91620615978312        2.91502660079194       -1.14601468341427
O           -6.18473444978699       -0.16301470658075       -1.77355455580968
H           -7.44537016923751        2.10928063730298       -1.66856735829341
C           -7.76370161667646        3.33637288689079        0.05206866414844
C           -6.75776503183835        4.08869531075126       -2.11261479537680
H           -7.23373762962333        4.07232757336984        0.65202751711831
H           -8.69640366777799        3.77884238899706       -0.28967768947619
H           -8.00849750033103        2.48435267642703        0.68073329782116
H           -6.17203170218506        3.80414633035067       -2.98470671261012
H           -7.73056194765951        4.43273448438631       -2.45479727637451
H           -6.25529319833241        4.91705579535169       -1.61859799239893
N           -6.90477973753435       -0.77073329187831        0.31310941031028
H           -7.76789050782241       -1.05069944975573        1.90941773206162
C           -7.71163015312068       -1.84143595943816       -0.23088563424591
H           -8.21663975054130       -1.52593893704549       -1.15335840344816
C           -6.91445182889599       -3.11503843006464       -0.52878275144257
C           -8.77712637380630       -2.18744525358238        0.82112094760089
H           -6.42481809454571       -3.47269284718955        0.37373851419430
H           -7.59784924864707       -3.88059334131246       -0.88525174738459
H           -6.16633897573670       -2.91828513869518       -1.29256719817577
O           -8.56520321132995       -1.61985082621317        2.00232964910129
O           -9.69885332165794       -2.91993304666116        0.59508798237034
