42
 energy: -62.486133526483 gnorm: 0.000478017355 xtb: 6.7.1 (edcfbbe)
N           -2.02990580308938       -1.01138974499038       -1.74377704819150
H           -2.03331961377787       -0.20425631520228       -2.35913943277730
H           -1.93380288216853       -1.83953300076942       -2.32060349385113
H           -1.32528354976355       -0.36264093503388       -0.12618602983152
C           -3.27595309109947       -1.06889897618851       -0.96974646957926
H           -4.17035440892723       -0.84741369932951       -1.55959508396769
C           -3.40727591037207       -2.45729363273161       -0.34317272761616
C           -3.14076477681368       -0.04733444444809        0.16277999867820
H           -2.52519350376757       -2.68425846959824        0.25251172762495
H           -4.28335056173700       -2.48844917390877        0.29668638440562
H           -3.51308346598984       -3.21432242183561       -1.11768703370003
O           -1.86344020550289        0.13068322735991        0.53051539897566
N           -3.98965048174691        0.62665643446382        0.79535498150929
H           -7.56573343120237        0.35251731356959        1.68848844136157
C           -5.39832795392850        0.80772798759772        0.77310426149039
H           -5.65350996831467        0.99478223871767        1.82788106518229
C           -5.64979648914761        2.10949768252316       -0.03720428977768
C           -6.37087395294508       -0.23554560413333        0.25772234094110
H           -4.87933591988707        2.82055275689133        0.26570033325377
H           -5.48619902853665        1.86413572705898       -1.08858459187108
C           -7.02849479206586        2.75824279863600        0.12580854148150
O           -7.56781244208580       -0.27396970094996        0.95373307467231
H           -7.81193009404896        2.01665332104174       -0.06518745598195
C           -7.21867322022768        3.34693578083204        1.52310911221325
C           -7.18379699317271        3.86375875573346       -0.91822185681768
H           -6.47704441112813        4.12154032913949        1.70379490886688
H           -8.20722341731202        3.79180816866525        1.61275480827979
H           -7.11531064702444        2.59815847307439        2.30612797334193
H           -7.11925543037213        3.45395028547136       -1.92326191493307
H           -8.14868800438465        4.35354737857360       -0.81122932373905
H           -6.40259462012322        4.61098668155186       -0.79877737148333
N           -6.12396275930300       -0.98096608661546       -0.71336642720696
H           -8.67345731446977       -0.48083526952815       -0.47750604338856
C           -6.98092263629609       -1.98801467270290       -1.28876905654414
H           -6.35100213421458       -2.52267960335278       -2.00954283675987
C           -7.55936123675281       -2.99713146340939       -0.28912033726577
C           -8.12705518496034       -1.35806013980891       -2.09623067208021
H           -8.24650256097321       -2.52569386831666        0.40945238104725
H           -8.08795733627746       -3.77663010423413       -0.83187432358974
H           -6.74944583223103       -3.45125409648011        0.27747932635956
O           -8.94314105905672       -0.55737695069388       -1.41264949216319
O           -8.28740298266026       -1.57960059272818       -3.26211626351743
