42
 energy: -62.486133505541 gnorm: 0.000480672059 xtb: 6.7.1 (edcfbbe)
N           -1.33743643175957       -0.67324101721056       -1.62339177023447
H           -0.71737169992182       -1.38191716143770       -1.99626164699611
H           -0.78976909865644       -0.08092901004309       -1.00517480920157
H           -2.69651240794534        0.55093043647464       -2.22605477781145
C           -2.43822717380785       -1.28164056662301       -0.87770912687152
H           -2.85619999702628       -2.07711105250111       -1.50753749918114
C           -2.04395006591885       -1.86827702095657        0.47507480560736
C           -3.53792811764242       -0.23030082165700       -0.74413563911171
H           -1.60781791996292       -1.09630413206925        1.10575921449612
H           -2.92949747370812       -2.25303762783336        0.96837762846652
H           -1.32140468847299       -2.67207219161360        0.34681801944801
O           -3.49476566460837        0.72383806498216       -1.68696961828678
N           -4.36613504099449       -0.35963809358111        0.18881988180516
H           -7.26681335325702       -0.14561485833728        2.06235691565933
C           -5.52183991075850        0.45894492287031        0.45301825057741
H           -5.46227220626961        0.68816502413043        1.52805976177098
C           -5.68645743799074        1.76270100553946       -0.34543565636926
C           -6.73300007344571       -0.41771857242871        0.20790957091412
H           -4.78486920649889        2.36516907523865       -0.22588406524249
H           -5.77793222686060        1.48959277929490       -1.39612188826790
C           -6.91137400846357        2.58543438443882        0.07244067125477
O           -7.60825951412649       -0.57279304268420        1.26760734073334
H           -7.78589108641102        1.92678827388007        0.12411878841389
C           -6.71386684628522        3.25498869036882        1.43188058612979
C           -7.19327829114759        3.64795692605602       -0.98804567581007
H           -5.86700160653539        3.93705494080884        1.39370182702514
H           -7.59939537664322        3.82562448975360        1.70304125759006
H           -6.52873086134057        2.52930502603606        2.22126883680026
H           -7.40417682919759        3.18105236420785       -1.94664881157486
H           -8.05256014582503        4.25164594947592       -0.70484467802954
H           -6.33351855528577        4.30415433065415       -1.10513305182989
N           -6.88601842339215       -0.93733350070805       -0.91703603814263
H           -9.13184753440762       -0.46902624495809        0.28451584193765
C           -7.95544781684877       -1.79973325260726       -1.34597087384632
H           -7.65336296401293       -2.16529650790572       -2.33427609714060
C           -8.21697899364367       -2.99917338456969       -0.42495083745177
C           -9.27165281626278       -1.03282643233979       -1.54766723689329
H           -8.57762959963198       -2.68327116916595        0.55149370537998
H           -8.95789768431126       -3.65080668508416       -0.88159820379635
H           -7.29171200431891       -3.55426586716230       -0.28807206410000
O           -9.72461073866832       -0.36890276556051       -0.48393097197562
O           -9.87077938361852       -1.04414140481292       -2.58447667079454
