42
 energy: -62.486133510657 gnorm: 0.000480334118 xtb: 6.7.1 (edcfbbe)
N           -2.13994792880766       -0.88464136939049       -1.66956818970775
H           -2.13443426194801       -0.03963734660967       -2.23153350090247
H           -2.10845711851295       -1.67724295265842       -2.30088831723696
H           -1.34053382883898       -0.36584082779042        0.00474549409160
C           -3.34661133479079       -0.93957834556384       -0.83868824622961
H           -4.26965279762081       -0.69230733364797       -1.37571952582927
C           -3.46523967962627       -2.34077366869967       -0.23541262051825
C           -3.13373024825655        0.04623530148605        0.31055198699744
H           -2.53219496101880       -2.61669594855646        0.25270619311838
H           -4.26255048952545       -2.36108482580477        0.50147972432947
H           -3.68495634977553       -3.07052377588605       -1.01196601326911
O           -1.85050254297126        0.12464452149115        0.68349877752857
N           -3.95084928602895        0.75321023984998        0.95423581059043
H           -6.91320572400842       -0.03899357877948        2.34210992514809
C           -5.35482986874504        0.97603098899987        0.79456453407305
H           -5.66088195392150        1.40922442575208        1.75950624733113
C           -5.56665589274952        2.04067153991803       -0.30463084961659
C           -6.27965591110896       -0.19220664409811        0.50593388259974
H           -4.84075734839602        2.83850514340361       -0.13932432288793
H           -5.34546727225941        1.56412619832334       -1.26042507865201
C           -6.98203676040703        2.62763024966106       -0.34677162628191
O           -7.12502645243501       -0.53694716053950        1.54211337746737
H           -7.70961274417074        1.80894528516176       -0.31367288856040
C           -7.24117145459384        3.56877784465452        0.82771731854628
C           -7.17894518654588        3.37673578891043       -1.66336361212376
H           -6.53267704600488        4.39405924802746        0.81086122373591
H           -8.24667414287645        3.97833144336659        0.76506062601211
H           -7.14611803763000        3.05850616771619        1.78329102821934
H           -7.06125140783087        2.70216195095277       -2.50788930302632
H           -8.17581624557768        3.80832445749972       -1.70929496057843
H           -6.45063778863421        4.17963154050281       -1.75535604343711
N           -6.28414211874424       -0.76383674857223       -0.60721344627884
H           -8.63786684582619       -0.70256434608836        0.48718991290190
C           -7.15428658290544       -1.82679520649372       -1.04238139195231
H           -6.73951279495998       -2.16793407648263       -1.99818297503002
C           -7.28927426382675       -3.02823551493712       -0.09795746651574
C           -8.55931781803486       -1.27974923824909       -1.34610539371311
H           -7.71645505087708       -2.74310389178309        0.86054251664641
H           -7.93093988495906       -3.77340263895710       -0.56211662821258
H           -6.31164900832758       -3.47040954061852        0.07730888586048
O           -9.18133116216434       -0.69562683548442       -0.32236873483197
O           -9.07033366106880       -1.37964375748228       -2.42365050315277
