42
 energy: -62.486133509458 gnorm: 0.000480457804 xtb: 6.7.1 (edcfbbe)
N           -1.00072253686157       -0.95213286157841        0.19169661054038
H           -0.12765562296815       -1.17657821339063       -0.27030659653631
H           -1.21208918130216       -1.71566970785222        0.82911355348628
H           -1.87661472804018        0.49534938552532        1.10848157806062
C           -2.08437365925431       -0.80971401553391       -0.78187009802332
H           -1.71134237996368       -0.17322410048614       -1.59442440077474
C           -2.59921014648241       -2.12273012424663       -1.36644733400548
C           -3.20609993897425       -0.03654735192020       -0.10433318394034
H           -2.90976700097471       -2.79126319332380       -0.56560622239190
H           -3.46198880469226       -1.91775928755056       -1.99091320315034
H           -1.82521046695363       -2.61039411117702       -1.95558706335868
O           -2.82524218008532        0.68915189146415        0.97035991315214
N           -4.36832302684441       -0.09903457711378       -0.57201029253588
H           -6.68242717977863        0.28261325567071        2.06613807076179
C           -5.45323443788136        0.65571939036682        0.00117906857048
H           -5.16999617706801        1.10808058317274        0.96600694699639
C           -5.85544094149103        1.75295785387640       -0.99975135938363
C           -6.62000030513476       -0.28329443525728        0.19821558712416
H           -4.99088630855261        2.39844795786397       -1.16693765930731
H           -6.09001527969073        1.24050758799182       -1.93287112104176
C           -7.05455556415185        2.59756809849420       -0.55684416327430
O           -7.17482409806602       -0.29477433474417        1.46954761345200
H           -7.86265203088493        1.92841232727118       -0.24070805023947
C           -6.69849925267933        3.52866294148722        0.60115487373095
C           -7.56269549901417        3.41745221133574       -1.74105660181619
H           -5.91014543722655        4.21610156870112        0.30130866277415
H           -7.56764496846931        4.11238919722506        0.89591972169419
H           -6.35337967526115        2.97759572141637        1.47311383569123
H           -7.87240921619183        2.76285373422901       -2.55150044005870
H           -8.41559020578521        4.02399119667880       -1.44575359016957
H           -6.78058711553149        4.07826877340952       -2.10896075873194
N           -7.02415324832678       -0.97915185284442       -0.75433618963158
H           -8.89864757111271       -0.38889860740350        0.91899219997123
C           -8.10059571314739       -1.93299279510871       -0.75311759250247
H           -8.04110281449541       -2.43792394773640       -1.72416567722601
C           -8.02304806201081       -2.98342876638245        0.36369239440466
C           -9.47942950694922       -1.25678375881327       -0.69525674219322
H           -8.13941502021672       -2.53173218603634        1.34652199332954
H           -8.80676673382804       -3.72313423347333        0.21970084642408
H           -7.05582049663858       -3.47912371336850        0.32247969994504
O           -9.68013034002352       -0.43611798835346        0.33638575714386
O          -10.33345837665656       -1.46574514405369       -1.50831541724054
