42
 energy: -62.486132245290 gnorm: 0.000632314385 xtb: 6.7.1 (edcfbbe)
N           -1.29862276237936       -0.45265898531310        0.92673371332173
H           -0.45923983422129       -0.96173032355503        0.67715354206037
H           -1.44145874528797       -0.57426612626188        1.92579714074537
H           -2.11875274078180        1.26451083053233        0.63863639366718
C           -2.45818048514231       -0.97318817341919        0.19885915456160
H           -2.16488348658529       -1.06029496647633       -0.85556223656799
C           -2.96649298170696       -2.32402001032557        0.69379775131714
C           -3.53878701213985        0.09493750916868        0.26172087848686
H           -3.29161953312930       -2.24655940070928        1.72863949256901
H           -3.81322326560018       -2.64035935549144        0.09566889573596
H           -2.17855322769896       -3.07160487407978        0.62422151328252
O           -3.07975930611104        1.34630967771371        0.47205743526778
N           -4.74483809328317       -0.22183029087101        0.11528018353214
H           -7.92781315747052        1.68982615729702        0.89383251556474
C           -5.78356374963705        0.78066794832285        0.12462469652968
H           -5.64787623068414        1.47887589269086        0.96545560340974
C           -5.73796982169571        1.56434546726026       -1.20683436351903
C           -7.10310475146356        0.06182929573157        0.26926920410066
H           -4.73744004605217        1.99275538744007       -1.29276931158483
H           -5.86160990153281        0.83227956145272       -2.00790895116191
C           -6.76877515506286        2.68461636393672       -1.37799532359226
O           -8.17211421804545        0.77699019187160        0.69817864456852
H           -7.77801523546210        2.27533520882663       -1.25962001800084
C           -6.55479666507539        3.81665544434644       -0.37314833214423
C           -6.66288366277096        3.24131054751546       -2.79804634127291
H           -5.56025604553482        4.23996996385025       -0.49688624618511
H           -7.28546533658110        4.60659178451566       -0.53342850851742
H           -6.64643833512146        3.48060591490566        0.65831515289052
H           -6.84251417808581        2.45934293650576       -3.53188664891069
H           -7.39457967258791        4.03089167395202       -2.95281023440757
H           -5.67116447598947        3.65372053097346       -2.97076473452251
N           -7.15443417940064       -1.16702523028629        0.02674479511642
H           -6.18959147369713       -2.63200891669331       -0.07672157368626
C           -8.33388337956285       -1.97870296476989        0.16267933818198
H           -8.90395817272004       -1.73835970294041        1.06978922435262
C           -9.25808689219862       -1.84897984663501       -1.05206284762104
C           -7.83741241315033       -3.43429799144501        0.25676930989573
H           -8.69542237331222       -2.03007761939907       -1.96550885587477
H          -10.05652163790339       -2.58157201273793       -0.97429710557540
H           -9.68530352255720       -0.84985994153098       -1.09002507778662
O           -6.53350269411311       -3.55527478834721        0.05496466438601
O           -8.56728240483133       -4.36172244487256        0.47602232849808
