42
 energy: -62.486133503016 gnorm: 0.000481227725 xtb: 6.7.1 (edcfbbe)
N           -1.06284904255239       -0.55972857729232       -1.17383412819193
H           -0.42941990490736       -1.23023635547064       -1.59216050322843
H           -0.61771092404551       -0.20049673189485       -0.33351737040874
H           -2.15356971441752        0.94270133502179       -1.65600412481097
C           -2.33685228840229       -1.18906869485233       -0.82963377321429
H           -2.66187846214062       -1.76566143754807       -1.70498494496652
C           -2.28354406863372       -2.11065209272239        0.38636054228464
C           -3.36536382829104       -0.07449559587456       -0.64867305403220
H           -1.94089528497023       -1.55892766857000        1.25966955079942
H           -3.27820537847351       -2.49159538347023        0.58932542833396
H           -1.60648710304287       -2.94319775476757        0.20520930653041
O           -3.03735339540186        1.07732021681305       -1.25690867125204
N           -4.39803806464944       -0.32742846849237        0.01594938040025
H           -6.63674963459415       -0.47499076415643        2.18037728198854
C           -5.51439344942317        0.55335240662659        0.27131639346611
H           -5.37939727005638        0.93343317756404        1.29546619100840
C           -5.73456769346160        1.72898035635060       -0.68862526168102
C           -6.71973352473349       -0.36700174258638        0.24035205555084
H           -4.84721172177150        2.36098509919230       -0.69356966157201
H           -5.86676303062984        1.30682276503814       -1.68494414448715
C           -6.96058579639248        2.57756722235099       -0.33215825972446
O           -7.21627224429278       -0.76619573699673        1.46646499159147
H           -7.82435167730011        1.91640855458629       -0.20183938359303
C           -6.74945304019167        3.37341564663744        0.95499130752705
C           -7.26499326331472        3.53234227802586       -1.48455707691850
H           -5.87510537719403        4.01484940921243        0.86322983889725
H           -7.61497463442362        4.00127612665392        1.15389317832658
H           -6.60855165509999        2.72180091450436        1.81448690091066
H           -7.46882495249873        2.97496384223042       -2.39497219006968
H           -8.13512388100411        4.14297263700306       -1.25497864873821
H           -6.41828210605065        4.19162227231300       -1.66429784370578
N           -7.16460765586649       -0.75110851283063       -0.86146102958996
H           -8.96850346558902       -0.69166774807637        0.98929178769753
C           -8.24626023591770       -1.67163411970712       -1.09534242770830
H           -8.23065125927755       -1.86740467538960       -2.17382667591316
C           -8.12345055392897       -3.00311494049969       -0.34174962430864
C           -9.61802626954571       -1.05392426772767       -0.78415702633946
H           -8.20849040360757       -2.86336427591228        0.73359944325368
H           -8.90675319306593       -3.68011864046667       -0.67351105711212
H           -7.15432527337605       -3.44736340415264       -0.55711236787693
O           -9.77312085657503       -0.57534397064540        0.45052044245591
O          -10.50449968292032       -1.01811847506480       -1.58874967508249
