42
 energy: -62.486133506885 gnorm: 0.000480634710 xtb: 6.7.1 (edcfbbe)
N           -1.15327585682791       -0.79605450425984        0.85388296582274
H           -0.19825883309427       -1.01940797797612        0.60195469487232
H           -1.47164627152082       -1.50762220583608        1.50637582163138
H           -2.24292515201300        0.67632531893642        1.45540963502011
C           -2.01754051414120       -0.78478888550170       -0.32538393758832
H           -1.50590441825611       -0.19620268487164       -1.09851967374983
C           -2.35165784691460       -2.16807360838236       -0.88109545859046
C           -3.27583564055310       -0.01618423562182        0.05256801433970
H           -2.86533886821175       -2.76046698301363       -0.12630369097964
H           -3.00591013779956       -2.07023401124319       -1.74072953948769
H           -1.44237511870780       -2.68577064629661       -1.18046127017418
O           -3.14347412104894        0.81270154659338        1.09788427165736
N           -4.33123667846452       -0.17764243190762       -0.61353777114949
H           -5.68951658921538       -0.67429249670182       -2.24319103164033
C           -5.53709906206767        0.55543742125396       -0.27928721288112
H           -5.59855966946090        0.76958181285759        0.79277416356910
C           -5.59010556059737        1.86882710308880       -1.07764292301227
C           -6.67206060614582       -0.35699898069457       -0.67632947328807
H           -4.78636949861549        2.51311560974622       -0.71514204657648
H           -5.38626455478397        1.64455961622954       -2.12908311644241
C           -6.93019122367989        2.60398869679018       -0.97290348327050
O           -6.57565168449399       -0.88236145837069       -1.90859456589209
H           -7.72626070897775        1.92924171171315       -1.30703360098438
C           -7.23036201254960        3.03237545184248        0.46062377308307
C           -6.90991998275572        3.82309144920567       -1.89383481610539
H           -6.42154352772179        3.64718432192067        0.84989441780643
H           -8.14925030134736        3.61266161360150        0.49211131300039
H           -7.35590640725541        2.16807569835133        1.10628710761280
H           -6.72154613261768        3.52876559979437       -2.92408726777018
H           -7.86436694201148        4.34210826336353       -1.85662203844545
H           -6.13012835435979        4.51675367827235       -1.58607981356964
N           -7.58205330885712       -0.63536320402205        0.14861195487983
H           -8.53275189168127       -0.20169756649099        1.62816130769855
C           -8.66435493909876       -1.53314885252021       -0.19579370176209
H           -9.03267035125701       -1.36026386068773       -1.21463936779493
C           -8.23625804182195       -2.99918568584321       -0.06725521014877
C           -9.80848897061488       -1.27118664712988        0.79406789616104
H           -7.81925806217925       -3.17745345677075        0.92190729845141
H           -9.10178146705225       -3.63980639804927       -0.21063187269858
H           -7.48391941175902       -3.23167244876110       -0.81672898326885
O           -9.46619497636297       -0.47094559540990        1.79688733684964
O          -10.89797756151128       -1.75999591934877        0.68044489595363
