42
 energy: -62.486133499951 gnorm: 0.000488256527 xtb: 6.7.1 (edcfbbe)
N           -2.43537617268016       -0.56663778531066        1.92691840888280
H           -1.43812616338106       -0.74498206720292        1.93362330364858
H           -2.89632510841094       -1.41198159981283        2.25450559035240
H           -3.73711647239610        0.74888380939537        2.46971609035894
C           -2.89864083452153       -0.25418636667324        0.57516035493407
H           -2.24129786831630        0.53414670984097        0.18260228499283
C           -2.89997247529080       -1.43558958900467       -0.39159207086163
C           -4.27742029767171        0.37062579486380        0.71399640167123
H           -3.41978511713199       -2.28285148030255        0.04922263380054
H           -3.41314508231162       -1.15003623950313       -1.30308085255517
H           -1.88025831785330       -1.73341536250279       -0.62708720787119
O           -4.51011381185823        0.95456924451789        1.90614172619920
N           -5.08525065220626        0.34078203445914       -0.24807342689725
H           -8.73543915740706        1.26923430642254        0.36214791807847
C           -6.38068656490866        0.96312967025528       -0.14645311204445
H           -6.42540654500265        1.69976794358018        0.67440193930143
C           -6.71807754496018        1.64609165123767       -1.48582126538195
C           -7.40580542501312       -0.10557866300289        0.15719342805339
H           -6.21222204408828        1.07974909051431       -2.26863138767586
H           -7.79415801601304        1.58561144603662       -1.67263862618718
C           -6.29268304440743        3.11641329051162       -1.55640219295128
O           -8.67484938130380        0.30586767691336        0.38328427193456
H           -6.77236088614887        3.66091969750222       -0.73277282414836
C           -4.78104958857957        3.27053042067401       -1.42083873254924
C           -6.76802407343479        3.72358278482344       -2.87528222864442
H           -4.27430710407199        2.69682466729939       -2.19281755599852
H           -4.49811053769609        4.31613640997066       -1.52060715682297
H           -4.43943884293565        2.91454647498444       -0.45353514968987
H           -7.84864127507877        3.64428880229159       -2.97410057718700
H           -6.49677100754141        4.77518473892476       -2.92906020748503
H           -6.30798858790566        3.20747960216854       -3.71470471826823
N           -7.04516532965064       -1.30569744997415        0.21466677948266
H           -5.68436700923148       -2.40840221935931        0.30797970988828
C           -7.91434274397959       -2.40403990486624        0.54951660878788
H           -8.58155716871776       -2.16478515189927        1.38736837507334
C           -8.75890450529906       -2.84996334846038       -0.64807009775157
C           -6.98841492653766       -3.56255695243284        0.96099631131245
H           -8.11501828786058       -3.04365957727798       -1.50345253379774
H           -9.29519083931337       -3.75903873972449       -0.39076849153584
H           -9.47069008272155       -2.07077613891096       -0.90904856215296
O           -5.70932185534431       -3.32261245211884        0.69603404077611
O           -7.38437050691139       -4.57960066861426        1.45829731669218
