42
 energy: -62.486133507504 gnorm: 0.000480439561 xtb: 6.7.1 (edcfbbe)
N           -1.03172255026545       -0.26577917452467       -1.42011742753021
H           -0.39738140593823       -0.81860220552818       -1.98332285829125
H           -0.53717651612940        0.00301671285690       -0.57397655590842
H           -2.24662339802860        1.19278169098261       -1.62814348342410
C           -2.22955696968848       -1.02955532931022       -1.07557445716837
H           -2.58132924682213       -1.51613529930650       -1.99428255564746
C           -2.02028448702889       -2.08973057891431        0.00291485174302
C           -3.31204390959524       -0.02493057445004       -0.68410134234681
H           -1.67777368799794       -1.62470625585510        0.92536904372853
H           -2.95911033743423       -2.59606387899946        0.19855208446856
H           -1.28097198686522       -2.81951437549652       -0.32137245191986
O           -3.10950975665063        1.21158718624594       -1.16415675454418
N           -4.27263238103605       -0.43235818266410        0.01210176754260
H           -5.62394865532822       -1.65783022970543        1.76181139228566
C           -5.43121937808534        0.32057779443433        0.44749794094223
H           -5.26677274206732        0.56545538939776        1.50751665927401
C           -5.78365182128245        1.59333292578178       -0.32666656066689
C           -6.52504969075213       -0.72825022003985        0.36558167095761
H           -4.93433324105220        2.27513703628277       -0.28885238553339
H           -5.94527198041052        1.31480644401559       -1.36871566516227
C           -7.02610464464758        2.31303637919444        0.21091200499793
O           -6.45968064841000       -1.71645109945642        1.28134978371174
H           -7.82792703595391        1.58091655228157        0.34451849097178
C           -6.74788051166765        2.98703333369892        1.55331642697653
C           -7.48761345994905        3.35567060788639       -0.80578568688593
H           -5.93167145070592        3.70045187513428        1.45751723776623
H           -7.63049410147702        3.52257894210194        1.89580321981630
H           -6.48247462264654        2.26009887354132        2.31724427130182
H           -7.74429671567780        2.88467745061303       -1.75142170318542
H           -8.36397761232963        3.88486421422136       -0.43867636624826
H           -6.69874886726497        4.08286016758016       -0.98625681659145
N           -7.34700489026210       -0.71957949296800       -0.58553011350487
H           -7.89936077020326       -0.02513019191459       -2.14889691329914
C           -8.33695425837851       -1.75492429098347       -0.76559681673027
H           -7.90477568121491       -2.75706957972554       -0.65136088989255
C           -9.50396448073554       -1.60458994571310        0.21672973215522
C           -8.88478121061869       -1.60313040331241       -2.19336860573363
H           -9.92380923840110       -0.60296475518366        0.14469368778542
H          -10.27435760739477       -2.33059032045312       -0.02709253995891
H           -9.15595557298720       -1.77238862750022        1.23284160227939
O           -8.50495945055383       -0.47718177868705       -2.78455840780538
O           -9.60303428459328       -2.41345261289923       -2.70950938037346
