42
 energy: -62.486133505551 gnorm: 0.000481036606 xtb: 6.7.1 (edcfbbe)
N           -0.79067211500052       -0.24496038314280        0.21279730034854
H            0.12194686443667       -0.29958419373893       -0.22234443408514
H           -0.82356338841578       -0.95163513641436        0.94253875118741
H           -2.00782689968303        1.08818156548485        0.93143120619518
C           -1.85298066060782       -0.48510703437386       -0.76234424743230
H           -1.63058438314732        0.12925244513085       -1.64448308286306
C           -2.01168932508315       -1.94137227326872       -1.19572444349463
C           -3.13822556780821        0.06885652940671       -0.16668803956789
H           -2.19537617711641       -2.57554848429576       -0.32993319007199
H           -2.85344458787080       -2.02641402118130       -1.87491618042450
H           -1.11073150621467       -2.28733796363771       -1.69798269985627
O           -2.96966925255919        1.01420632842379        0.76955521975322
N           -4.25203639531302       -0.34765907889338       -0.58089707406833
H           -5.07225966451287       -2.11634906017256        0.00506979433527
C           -5.48928341067748        0.18562206990339       -0.04066397142620
H           -5.37346235363338        0.40345480666118        1.03282441506966
C           -5.90109871028079        1.47152901097359       -0.76882392748557
C           -6.51319138678380       -0.92138108737084       -0.18231488450277
H           -5.00566126084172        2.07809126792315       -0.91991044572692
H           -6.28947414906967        1.19183689459114       -1.74868257277809
C           -6.94230621083704        2.29711558410294       -0.00338174015312
O           -6.04245934673959       -2.16352299740479        0.03928883640576
H           -7.67391402637257        1.61081906307654        0.43207048550613
C           -6.28594200364809        3.09734677887835        1.12016846858248
C           -7.66454075136630        3.24430784752258       -0.95972243602865
H           -5.60104431629546        3.83538825641322        0.70723731598342
H           -7.03973733579870        3.61936335946085        1.70487917043091
H           -5.72352623482805        2.45162766172605        1.78985694385638
H           -8.18461790042994        2.69297494524602       -1.73901073758335
H           -8.39524015047049        3.84219969320411       -0.42036063916438
H           -6.95293635484979        3.91896007603402       -1.43165390609375
N           -7.69328899874801       -0.67193383588551       -0.54068282377862
H           -8.86650057751354        0.45439571594452       -1.33331032555691
C           -8.67498248221730       -1.71704196594754       -0.71506885724944
H           -8.24923831422287       -2.60112707924253       -1.20720367654134
C           -9.28842681970632       -2.14533591089711        0.62235281017872
C           -9.79134209597098       -1.14245949245781       -1.60003709237665
H           -9.67977565053677       -1.27623866366253        1.14760142740520
H          -10.09912111726036       -2.84448289763398        0.43768214730404
H           -8.53154441120900       -2.62258674650657        1.23984804718512
O           -9.68950888727070        0.16653010196839       -1.79574512400532
O          -10.67691294524255       -1.81200756623471       -2.05438079010120
