42
 energy: -62.486133512303 gnorm: 0.000479953778 xtb: 6.7.1 (edcfbbe)
N           -1.37414500791427       -0.59819901723730        0.76218124314668
H           -0.50030590527266       -1.04387610853843        0.51045473058377
H           -1.60648981558260       -0.89473107703163        1.70630883307101
H           -2.22544083713286        1.12204976384705        0.74937140544200
C           -2.44463550254801       -0.99156625204928       -0.15395577487284
H           -2.05050685461844       -0.89963401074742       -1.17440681820383
C           -2.97873299401606       -2.40630060454410        0.05553773742450
C           -3.55471560191006        0.04186984625958       -0.01747103842306
H           -3.33301990563172       -2.52378188243378        1.07745422389539
H           -3.81462142592121       -2.57567525085624       -0.61415517361399
H           -2.20065054218617       -3.14187379651699       -0.13865526206977
O           -3.16464406450987        1.22513076554674        0.49240779894662
N           -4.72059329813633       -0.25759667265581       -0.37408437772983
H           -7.15311209702498        0.58151032984247       -2.38264720932367
C           -5.82165047193212        0.68399423937686       -0.28941579272430
H           -5.91675466913037        1.02210994536575        0.75056224982687
C           -5.62591562207261        1.90726175032067       -1.19424922872673
C           -7.04942766206912       -0.14800148880425       -0.61371005441135
H           -4.68981045706740        2.38369890246050       -0.89858473222759
H           -5.49269378509990        1.57608891928639       -2.23104968601146
C           -6.75491406308725        2.94427978339693       -1.10184942249929
O           -7.61597207472144       -0.06231418738436       -1.83189626282513
H           -7.72722188802334        2.44779351158271       -1.20153719252656
C           -6.73160884614936        3.66653835811775        0.24345521398403
C           -6.61109041988622        3.95686066617968       -2.23800501644604
H           -5.76655857595118        4.14302960266224        0.40148044267223
H           -7.50264489197087        4.43303847966931        0.27100578204203
H           -6.91455183313055        2.97652138670096        1.06289188701692
H           -6.66434081110893        3.46975696849878       -3.21005249623346
H           -7.40364861177791        4.69945530957435       -2.18762196584071
H           -5.65521535531045        4.47115545978144       -2.16489565758093
N           -7.44184934492888       -0.96220418421950        0.26287092095106
H           -7.37054712088214       -1.57682776574838        1.94411319727060
C           -8.53588731747747       -1.87902618371496        0.04100455678169
H           -9.40807391223609       -1.37938684808825       -0.39867566065651
C           -8.12442038382323       -3.04691092622518       -0.86293350907261
C           -8.92487720622204       -2.44863324181515        1.41405589737093
H           -7.22927676559028       -3.52141862015968       -0.46606653440786
H           -8.93029576058442       -3.77460437379566       -0.89898467610507
H           -7.91714863700032       -2.68398713082365       -1.86602357487082
O           -8.05117906719211       -2.15411784961605        2.36890859540332
O           -9.90700183965795       -3.11350235122190        1.59579748184261
