42
 energy: -62.486133512297 gnorm: 0.000479452792 xtb: 6.7.1 (edcfbbe)
N           -2.13290174266369       -1.08644459995299       -1.63030437690299
H           -2.13027569392667       -0.30737627725603       -2.28105499931239
H           -2.11507451753922       -1.94253747129685       -2.17298537644175
H           -1.30503358383121       -0.34898555397333       -0.07594903528051
C           -3.32997239731361       -1.03802645827407       -0.78501884556737
H           -4.25227772076459       -0.83306162089551       -1.34202443920061
C           -3.46045844818996       -2.36398838222245       -0.03347366348757
C           -3.09430590390772        0.06804669869971        0.24648991535803
H           -2.54628518450685       -2.57052651278457        0.51988164132708
H           -4.28882431755908       -2.31790334572411        0.66809541675528
H           -3.63598306886400       -3.17989938320563       -0.73258747597701
O           -1.80021638967202        0.21278369027075        0.55734465580282
N           -3.90516952270441        0.82309458523557        0.83984302218476
H           -6.66664292853810       -0.30336170413669        2.29117487416275
C           -5.32198996655144        0.97906609859241        0.74173421104113
H           -5.61854459857481        1.33467977630394        1.74097716614379
C           -5.60541625406504        2.10375527264176       -0.27798042010237
C           -6.20977422480749       -0.20396788343778        0.39923691072831
H           -4.89887309732321        2.91227228997398       -0.08602196634462
H           -5.40338822959115        1.69364488552739       -1.26807050540812
C           -7.03926216079775        2.64310707334550       -0.23307561565539
O           -6.92590979719467       -0.72412902602428        1.46119654574443
H           -7.73787777414480        1.79930956387672       -0.21557944489086
C           -7.28020591931179        3.50979337062958        1.00092819980886
C           -7.31509503108770        3.45310549231637       -1.49818759465258
H           -6.61080925152433        4.36714602173197        0.99421435410411
H           -8.30491483956112        3.87380526556890        1.00909962894514
H           -7.11393401748306        2.95554586735924        1.92156237609259
H           -7.21258702834537        2.82717342436906       -2.38105595061249
H           -8.32588853109958        3.85298363993085       -1.47995588407744
H           -6.61635061039191        4.28318391379372       -1.57700875430240
N           -6.30673852858081       -0.62762654871434       -0.77446660923451
H           -8.53434440493654       -0.80866534471593        0.54112551257166
C           -7.18474528157925       -1.65971980884661       -1.26437211636495
H           -6.86004228203237       -1.85391986785251       -2.29333282976396
C           -7.19719234438492       -2.98073994612526       -0.48464932923817
C           -8.62612133456658       -1.12918743487774       -1.35395914208255
H           -7.52101946403190       -2.84042073242317        0.54394312656387
H           -7.87528223667050       -3.67498010909677       -0.97560765589726
H           -6.20016093761379       -3.41332829316687       -0.47704798794473
O           -9.15647803762597       -0.71448665878736       -0.20364288362635
O           -9.23982296155519       -1.10145239946174       -2.38065931497267
