42
 energy: -62.486133520746 gnorm: 0.000479032957 xtb: 6.7.1 (edcfbbe)
N           -1.32682199875763       -0.61547261116314        0.64716997019741
H           -0.49935299847722       -1.15279886737521        0.41766253678838
H           -1.52592553602209       -0.76975214064357        1.63217688616455
H           -2.08654772007055        1.14393187523320        0.42671666476200
C           -2.46894129789450       -1.05167327869861       -0.15625273083135
H           -2.13628549072130       -1.07655561090829       -1.20252454428512
C           -3.03801922689387       -2.41566992984587        0.22440307365115
C           -3.52654425488786        0.04026095578549       -0.06090965477665
H           -3.33243472729526       -2.41875168890822        1.27149633734707
H           -3.91919977948384       -2.61620179349997       -0.37480458929895
H           -2.29897262597182       -3.19703456604999        0.05931587262701
O           -3.03971970177537        1.26104620158303        0.23845464517131
N           -4.72894633532349       -0.25840032824297       -0.25539428022238
H           -7.09743426692989        0.62264979407648       -2.35560693641556
C           -5.82214181543375        0.69304883643404       -0.22246638838183
H           -5.95935355547623        1.01933925890538        0.81612585378794
C           -5.60933345873823        1.92398450316060       -1.11345548467468
C           -7.03745129613589       -0.13971378777403       -0.59766921444098
H           -4.68430307327477        2.40690514373086       -0.79737402950515
H           -5.45067955666646        1.59921408514730       -2.14890860592316
C           -6.74996920501581        2.95003236002997       -1.03699676422278
O           -7.56379877149209       -0.04154542763620       -1.83255929359857
H           -7.71781658821715        2.43777539280145       -1.09023598591666
C           -6.70017005505919        3.72469778043219        0.27795980150422
C           -6.64974143993992        3.91918727430097       -2.21496593342726
H           -5.75229752403939        4.25030253694392        0.37205567707887
H           -7.50410694872840        4.45614064394265        0.31454657032748
H           -6.81157590825959        3.05894337628592        1.12982033627426
H           -6.74593717424332        3.39762006571248       -3.16565926768233
H           -7.43667238389876        4.66728254541912       -2.15890376020575
H           -5.68971924710346        4.43067822493634       -2.20080857253385
N           -7.46143496404093       -0.96019837681559        0.25806078119648
H           -7.41207820865170       -1.63153401733791        1.92147244296147
C           -8.54601009530503       -1.87552573072323       -0.01211663014958
H           -9.41509495360989       -1.36191334800413       -0.44215520886300
C           -8.12310564468177       -3.00786097202683       -0.95520390177261
C           -8.94990278988728       -2.49748043993903        1.33363570161494
H           -7.22636220535024       -3.49028161980000       -0.57165164485100
H           -8.92428762082157       -3.73893117049284       -1.01879330526576
H           -7.91537560078952       -2.60975523977347       -1.94466624072462
O           -8.09527846592812       -2.22860645713824        2.31274213816144
O           -9.92704674689583       -3.17940928832084        1.47520281432341
