42
 energy: -62.486133519160 gnorm: 0.000479038623 xtb: 6.7.1 (edcfbbe)
N           -2.38195156382116       -0.71577688303258       -2.01288153030071
H           -2.46363308970006        0.16751713870397       -2.50676386457679
H           -2.43158210998357       -1.45968062951123       -2.70009702663723
H           -1.35437443150636       -0.29878787239161       -0.45319583104057
C           -3.45804067574163       -0.85845664560545       -1.02881290281677
H           -4.43985213984188       -0.57434070351048       -1.42760118701775
C           -3.48780950701402       -2.31324968380762       -0.55544094662626
C           -3.08473323403686        0.05944267037543        0.14415983951179
H           -2.50112528746483       -2.60689755985982       -0.20231259827730
H           -4.20051284852080       -2.44915874620639        0.25176675245840
H           -3.77551675252217       -2.96563041362049       -1.37791243294921
O           -1.76327086569634        0.13834293193114        0.32434812556493
N           -3.80345726778097        0.74935504094969        0.91521573992762
H           -5.31362462535281       -1.11829002399107        2.34310501893564
C           -5.23825632992067        0.85105731461824        0.99132360450885
H           -5.44225016035836        1.10383416303226        2.04241352963581
C           -5.69573432137640        2.02054321564894        0.10422298456786
C           -5.96924122214058       -0.43230365045099        0.67295139584316
H           -5.04100442179562        2.86657371613711        0.31965059829820
H           -5.53991610083746        1.73181107669687       -0.93645478536843
C           -7.15663881167422        2.43597620482453        0.30574768925774
O           -5.87217107847680       -1.40690490024552        1.60923934825029
H           -7.78307905422129        1.53981751850632        0.26055656470914
C           -7.36870743043307        3.11849700954637        1.65513481472615
C           -7.57565016481928        3.37866271569906       -0.82151320802799
H           -6.72654798274657        3.99211832374649        1.74247122307065
H           -8.40233578641339        3.44209704611717        1.75370756208648
H           -7.14893048720199        2.44656411379974        2.48061843928123
H           -7.47343826776899        2.89566361917180       -1.79049871463670
H           -8.61284511895397        3.68117567976451       -0.69889136446543
H           -6.95577988790558        4.27251676656970       -0.81607083650371
N           -6.58305907318200       -0.58332863026223       -0.41449726542457
H           -6.89596988892541       -0.06183149320185       -2.17511267825656
C           -7.20714353907193       -1.82814190281882       -0.79543612051513
H           -6.73297844282524       -2.70455470825052       -0.33870393028868
C           -8.69846816090049       -1.81658206668050       -0.44117928837290
C           -7.08488218400359       -1.91565801975071       -2.32225300189405
H           -9.18315725749267       -0.94847550451287       -0.88401553395338
H           -9.16841605516114       -2.71972693297164       -0.82042971185478
H           -8.81886007489472       -1.77555891230713        0.63880740593982
O           -6.95602973860212       -0.72332691384230       -2.90034346196145
O           -7.11517608665668       -2.94483981912331       -2.93453905351652
