42
 energy: -62.486133507271 gnorm: 0.000480467680 xtb: 6.7.1 (edcfbbe)
N           -1.39826075474459       -0.48731198978088        0.88638297735770
H           -0.57337697076305       -1.04322879741695        0.69301715269121
H           -1.59754787529663       -0.57671652551916        1.87921448117493
H           -2.14834903772974        1.26730636034589        0.45377747068750
C           -2.54268723568613       -0.97566808420166        0.11366754905767
H           -2.21468488899892       -1.03780212210804       -0.93319047769860
C           -3.08307788463901       -2.33265911122063        0.55248985041983
C           -3.60444876192600        0.11012915428830        0.16995355327354
H           -3.47761322345811       -2.27298328370223        1.56322632944390
H           -3.88669054549815       -2.63852583766942       -0.10691131662421
H           -2.29239104476206       -3.07994780391819        0.52157345344782
O           -3.10751333115848        1.36158475548609        0.29067908491870
N           -4.81962221449853       -0.19578511066926        0.11869043713174
H           -8.14714750758335        1.69423646312543        0.32584172249052
C           -5.87110033700290        0.79348525750421        0.09398227833398
H           -5.80569336878898        1.45493009816993        0.97068781690260
C           -5.74263891176381        1.63194756079111       -1.20188059525014
C           -7.18021298326528        0.03704169824598        0.13472016825538
H           -4.72763828155506        2.03248994244619       -1.21313570054417
H           -5.83603745786119        0.93664138814853       -2.03983961338880
C           -6.70964543008713        2.80321896455902       -1.41070017551453
O           -8.32719281028720        0.74981266608291        0.24689559460364
H           -7.73581992603188        2.43110509336641       -1.50647619860562
C           -6.63251169432558        3.82521408670251       -0.27616398777162
C           -6.35909123021333        3.48919510140278       -2.73248222710163
H           -5.61295313399449        4.19176062200389       -0.17739998169493
H           -7.28134306342984        4.67238810559369       -0.48859319780188
H           -6.93164923799762        3.40999532461567        0.68524322529903
H           -6.41330228330934        2.78342619564345       -3.55790169996007
H           -7.05071293634536        4.30421713563491       -2.93309120229490
H           -5.35102977473346        3.89602034917548       -2.69376152341383
N           -7.15707198450478       -1.21676172184177        0.15779874690216
H           -6.15229195495759       -2.63777499248792        0.41708953530691
C           -8.32556777023715       -2.05027961375585        0.25547646590649
H           -9.00857092145747       -1.70925310751512        1.04507854082977
C           -9.09841210511155       -2.12660369892692       -1.06469294357398
C           -7.81423928376978       -3.45747124422821        0.61813761900539
H           -8.42413311831254       -2.40578154558337       -1.87165387726479
H           -9.88017374906245       -2.87600353600065       -0.97829967311028
H           -9.54422434325278       -1.16135307784891       -1.29129108281388
O           -6.49267812623785       -3.54745389231505        0.62798778117791
O           -8.54684376198956       -4.37880689158420        0.85478847208095
