42
 energy: -62.486133511200 gnorm: 0.000479858326 xtb: 6.7.1 (edcfbbe)
N           -0.76654064432439       -0.20042534237529       -0.75309026522890
H           -0.00228786149483       -0.74566638390437       -1.13257590849959
H           -0.49376818001629        0.10325529164472        0.17755403981481
H           -1.92308922402792        1.22172525890437       -1.26175082389226
C           -1.99216476274878       -0.99264803446791       -0.67661495033419
H           -2.10260882979939       -1.50762393464388       -1.64056370688535
C           -2.01564090086728       -2.02193601513294        0.45072302523484
C           -3.15827628669708       -0.00721871261420       -0.57044549213505
H           -1.87931720000043       -1.52718803669759        1.40984983553769
H           -2.97352958769564       -2.53052111203328        0.46554746579884
H           -1.22210262585620       -2.75355838117896        0.31290673080471
O           -2.87441748440172        1.22136683630820       -1.02466273316071
N           -4.23742429687470       -0.42259421306548       -0.07963323091192
H           -5.15026105157290       -1.55237362779429       -1.42264597030708
C           -5.50095028754317        0.26322573870652        0.04753103747989
H           -5.69033800333149        0.35789059707632        1.12177792328489
C           -5.60281657631138        1.65115013217534       -0.61469285192954
C           -6.55044304165111       -0.67354697384347       -0.52691620298171
H           -4.81563735806664        2.27969223995902       -0.19613285572653
H           -5.40197996541782        1.53716606564968       -1.68302067914701
C           -6.94762827234616        2.36178600149689       -0.43592689454312
O           -6.12273809910282       -1.57469298966174       -1.42643650625163
H           -7.73861608047751        1.73425659810021       -0.85548370658266
C           -7.26231994849774        2.62897409205140        1.03367621497695
C           -6.92184808327949        3.68030511822396       -1.20846739391834
H           -6.47713240247687        3.23206665399464        1.48586699530001
H           -8.20186161032631        3.16896738479910        1.12098320486118
H           -7.35347436820244        1.70120868503944        1.59174439882334
H           -6.72280566580386        3.50726256864153       -2.26355199915931
H           -7.87908218081162        4.18805231114750       -1.12043427346596
H           -6.14718464791955        4.33647187771774       -0.81666090223236
N           -7.74711574426012       -0.57837096932038       -0.14365682519127
H           -9.08256215883110        0.40910600048342        0.62150644652117
C           -8.78427311067061       -1.43240684293530       -0.68027589432172
H           -8.68256713963657       -1.57290606729451       -1.76375977761295
C           -8.78374352784337       -2.80696476449701       -0.00192778839247
C          -10.13185446225237       -0.75378332405680       -0.39422922079408
H           -8.84202557987698       -2.68740534119361        1.07804714160744
H           -9.64286642076402       -3.37653366378928       -0.34488222849376
H           -7.87078949230061       -3.34196628468997       -0.25083599334134
O          -10.04014459631009        0.28904059261703        0.42186866968786
O          -11.16996349890336       -1.14466485828435       -0.85137305206137
