42
 energy: -62.486133517087 gnorm: 0.000479456411 xtb: 6.7.1 (edcfbbe)
N           -2.18966722336862       -2.46567909476608       -0.93502477528089
H           -1.22570894624708       -2.76665180016715       -1.01369850832239
H           -2.59884751926377       -2.49820385565860       -1.86520655725778
H           -3.78656083951450       -2.74697862511147        0.07222906153767
C           -2.27018061995991       -1.10188006633528       -0.41357041689120
H           -1.64751482620736       -1.06279062319960        0.48987835728293
C           -1.81163437743313       -0.02156119189965       -1.39041556027673
C           -3.71717670155580       -0.87709378213483        0.02607807820519
H           -2.41256000720771       -0.06083989360407       -2.29660467070254
H           -1.94406694489751        0.95345246755414       -0.93508500672277
H           -0.76400218966965       -0.16148435422088       -1.65080177118098
O           -4.36769915682325       -2.00646720172675        0.34251719008259
N           -4.11432673980028        0.30595238691472        0.15119654907652
H           -7.30643173812948        0.75067937086928        1.97867352285522
C           -5.43644589595242        0.79264445629597        0.42076179382537
H           -5.38044010064208        1.28230929929467        1.40499457325654
C           -5.71996799551780        1.86318628029591       -0.65725549809426
C           -6.58269009839296       -0.19178961236754        0.42535054294634
H           -4.84428693197434        2.51122956976713       -0.71038145738307
H           -5.80723925062682        1.33403462447756       -1.60730491030332
C           -6.97721844841648        2.70731733055852       -0.42494915438649
O           -7.54635227239836        0.01459676109440        1.40355491578273
H           -7.83048694357419        2.04511370449346       -0.24063884203950
C           -6.81447291378454        3.65693839167798        0.76138320835746
C           -7.28254678917517        3.51310171958650       -1.68672499801019
H           -5.99394876629924        4.34696912913989        0.57720758451551
H           -7.72303431426354        4.23688218016694        0.90743626507657
H           -6.60442810212685        3.12529782338465        1.68738818446936
H           -7.46225354246627        2.84985893910558       -2.52898250793795
H           -8.16762715329556        4.12786450220240       -1.54108103157453
H           -6.44672515159472        4.16471691737348       -1.93202713678496
N           -6.62592301638517       -1.10661883450359       -0.42180863610404
H           -8.97893867846592       -0.38039582001890        0.38092070750658
C           -7.62183461795861       -2.13610008660013       -0.55510820505329
H           -7.22635061793269       -2.82379564574000       -1.31171412045218
C           -7.89259864028525       -2.91711034662294        0.73759174567975
C           -8.95044082588845       -1.59799713755692       -1.10411898136428
H           -8.35419509803528       -2.28765832581445        1.49532183306323
H           -8.55095010924550       -3.75580258720555        0.52469035246118
H           -6.94829653281011       -3.29074640596212        1.12665575402861
O           -9.51582485216599       -0.61768719921799       -0.39941545964486
O           -9.46429577866939       -2.03883948709844       -2.09297719254766
