42
 energy: -62.486133509505 gnorm: 0.000480541195 xtb: 6.7.1 (edcfbbe)
N           -1.33579958005677       -0.01640066843454        0.51856534829352
H           -0.51794137664801       -0.48429560885033        0.89486383031457
H           -1.99210445859633        0.13729726584357        1.27689779840572
H           -2.82652598924181       -0.10129914997536       -2.67365829247402
C           -1.96916966558972       -0.84509078392126       -0.49037802206664
H           -1.33559624887209       -0.80609078361922       -1.38979471499397
C           -2.15670310264649       -2.31535331421019       -0.07659764834258
C           -3.33112030688556       -0.26213380694406       -0.79850552008886
H           -2.78971727860185       -2.36200670040798        0.80616447057143
H           -2.62830007799491       -2.88541886851822       -0.87396484798814
H           -1.19184568001230       -2.76526589230968        0.14823469483380
O           -3.61494305605778       -0.01903613923348       -2.12259800112078
N           -4.12183277068537       -0.08085161190431        0.15167631150192
H           -5.32663148756961       -0.69333351187517       -2.04929695674448
C           -5.45477554050814        0.46963824224462        0.10627577023488
H           -5.74302412844908        0.59764939389564        1.15349226205579
C           -5.51356881531410        1.83182909975542       -0.61381959515448
C           -6.45650786417948       -0.47676267651692       -0.51936085634951
H           -4.72120128774277        2.45944549751881       -0.19871781977903
H           -5.29693360827236        1.68291752108550       -1.67455805449953
C           -6.86062975118050        2.54933273631865       -0.47654584592893
O           -6.16315883382162       -1.04180510143835       -1.69979216373434
H           -7.65800203051688        1.86270971399125       -0.77933250615262
C           -7.12494393599040        2.99632924317872        0.95877643819012
C           -6.88343389660038        3.75965983257357       -1.40957364540439
H           -6.33011169965564        3.65490420117228        1.30296361473489
H           -8.06618245234261        3.53741816391546        1.01220332233960
H           -7.18913701745613        2.14671224518983        1.63234167504215
H           -6.73667068215235        3.45651533080414       -2.44405120703195
H           -7.83836299891763        4.27417216315496       -1.33805658226634
H           -6.09525883817385        4.46028414820043       -1.14107035569977
N           -7.55504230793091       -0.64869071366462        0.07644046801690
H           -8.81159477263486       -0.00332469726843        1.22300533025156
C           -8.59410762261725       -1.48370988161525       -0.48237573556183
H           -8.66077695691971       -1.38536232305675       -1.57386248986040
C           -8.36972498577958       -2.95861779458328       -0.13194174975940
C           -9.92468775923233       -1.03307007882212        0.13761743258998
H           -8.25691085539704       -3.07063293598880        0.94446788025542
H           -9.22436380676574       -3.54089173012444       -0.46460264015460
H           -7.46989439670407       -3.32227240664463       -0.62217063484101
O           -9.77841464732419       -0.17515304193626        1.14053854002157
O          -10.99053868812209       -1.43197018647629       -0.24096422096838
