42
 energy: -62.486133515434 gnorm: 0.000479060474 xtb: 6.7.1 (edcfbbe)
N           -2.57130449984978       -2.07473376206533        1.50938303722999
H           -2.71600406326620       -1.74048274188380        2.45661036680924
H           -1.64108525966337       -2.47233461742998        1.45500783404301
H           -4.34092652855723       -2.51742364988250        0.98699523762573
C           -2.73442819385832       -0.98957714114014        0.54520445171549
H           -2.25908443875438       -0.04659161644394        0.84767402021556
C           -2.17511011003258       -1.42135147996938       -0.81089245762872
C           -4.23598543059815       -0.74704497109503        0.39319450554360
H           -2.64477666470538       -2.34961154069020       -1.12926918739075
H           -2.37617846609659       -0.65139750820454       -1.54944151700350
H           -1.10015796559783       -1.57743257046093       -0.74744318028567
O           -4.96963205643422       -1.84548778145843        0.64042979513320
N           -4.58980997532544        0.39332009832281        0.02111877673012
H           -7.78914733336018        1.05684084368290       -1.81060328171797
C           -5.86948584589427        0.99721804965511       -0.23416320124252
H           -6.01835204854379        1.68077402533999        0.61708996814891
C           -5.68915053092792        1.85663682497592       -1.50174026497374
C           -7.11342423560737        0.11839583012468       -0.26418682757229
H           -4.63140809184158        2.12082558411624       -1.54523989281411
H           -5.89148647598263        1.24808934316861       -2.38894599491209
C           -6.51980084722245        3.15126650291162       -1.51917981331317
O           -8.04450258469304        0.33543316845601       -1.22327303415075
H           -7.51658276830273        2.96693095949845       -1.09867692190206
C           -5.85151779773075        4.22704539402410       -0.66539815107233
C           -6.68398665009903        3.65299950155719       -2.95370906413953
H           -4.88444586992903        4.49458387694915       -1.08514220339898
H           -6.46959265419135        5.12113384148416       -0.62806870168033
H           -5.69660608688060        3.87693804804167        0.35205150549882
H           -7.21146380515584        2.92809501174149       -3.57174097285259
H           -7.24731581267253        4.58296233078576       -2.96887191475220
H           -5.70950813021936        3.83688160040085       -3.40077427928686
N           -7.25547151659327       -0.76639258534984        0.61483203823043
H           -6.52300067611541       -1.85471959841719        1.93897388398568
C           -8.40210192826092       -1.63721674164347        0.68226111725209
H           -9.34509534511917       -1.07900472366538        0.62957434904377
C           -8.38307382545424       -2.69515990445977       -0.42862004678692
C           -8.31774956248192       -2.37239227264401        2.02685772777928
H           -7.42813612366976       -3.21728348584469       -0.41969077316292
H           -9.18575757124430       -3.40851092578102       -0.26302023750286
H           -8.51769479652629       -2.21830960922502       -1.39627256862137
O           -7.09750072492377       -2.38171552803339        2.54556993436280
O           -9.25834798147087       -2.91422163632612        2.54047119828943
