42
 energy: -62.486133521258 gnorm: 0.000478843698 xtb: 6.7.1 (edcfbbe)
N           -1.25051829236243       -1.84747263259440        0.52580950893774
H           -1.45153302146688       -2.38390906073607        1.36296447099318
H           -0.24511777151777       -1.75118627549087        0.45049372848096
H           -2.65244371864354       -2.28016983440999       -0.65768508293333
C           -1.89688738106014       -0.53646855973264        0.58157061603060
H           -1.87835227745064       -0.07325197370541        1.57663400746211
C           -1.23938085803388        0.40977650104042       -0.42304371682605
C           -3.35179962798798       -0.73557762849907        0.17342664658505
H           -1.25499526680255       -0.02885666692363       -1.41894192358168
H           -1.77962026982116        1.35143913758412       -0.44282301061190
H           -0.20635184944027        0.60271861181464       -0.14134269050558
O           -3.52071677337841       -1.81992530325450       -0.63791840622101
N           -4.19652295038224        0.09065542201502        0.56395009777420
H           -5.16581006157606       -2.08783248262262       -0.39964030477577
C           -5.59403173960530        0.32557591591973        0.33002987844511
H           -5.96817180364063        0.72869534998115        1.27748447551288
C           -5.58163568640030        1.47127897103187       -0.71967662621968
C           -6.55181590794517       -0.78375867515947       -0.08285805541771
H           -4.82389965590467        2.18092501341375       -0.37857914015782
H           -5.23418734539988        1.04485996007702       -1.66465765747848
C           -6.88749126263600        2.22722428330730       -0.96739751587885
O           -6.13415652221160       -2.03502578929787       -0.29959394571794
H           -7.62014815150856        1.53237987203670       -1.38221782005995
C           -7.44729581519952        2.83967661958738        0.31273121044777
C           -6.63389364349677        3.32348809513329       -2.00232084854641
H           -6.71812128862971        3.51097780699684        0.76208028287508
H           -8.34691485919645        3.40849184145505        0.09157089904666
H           -7.70107582238264        2.06976542877444        1.03602586472593
H           -6.23961519387172        2.90234508530986       -2.92426390226785
H           -7.56098510700745        3.84144599795224       -2.23384734241286
H           -5.91906516386548        4.05132251950350       -1.62331815400585
N           -7.77072436965703       -0.46223520964092       -0.20298208461160
H           -9.17942998388645        0.74171676409013       -0.13296009899415
C           -8.75885248168572       -1.44550572560898       -0.59039903568793
H           -8.42580571256004       -2.04031708316295       -1.45045340292961
C           -9.10406770983134       -2.39907196682819        0.56119232333809
C          -10.03966755835441       -0.69150933378738       -0.96514355285607
H           -9.41620790784796       -1.82963304317901        1.43474383141897
H           -9.91439359978103       -3.05439151194716        0.25454245226406
H           -8.23362130960704       -2.99654064541343        0.81891487877712
O          -10.05893722529165        0.56630563018360       -0.53767880129980
O          -10.95125983876613       -1.19884626946494       -1.55799699608977
