42
 energy: -62.486133508945 gnorm: 0.000480528000 xtb: 6.7.1 (edcfbbe)
N           -2.42498656290920       -2.04627482158593        1.51142466594953
H           -2.47456248904611       -1.67813587921416        2.45591544159277
H           -1.53811913599559       -2.52475225451006        1.40743623804271
H           -4.27548263064179       -2.35169260249017        1.12599998955973
C           -2.55709864322313       -0.97311056223493        0.52915840853931
H           -2.00661228494144       -0.05861227807681        0.78913945764232
C           -2.08866392568248       -1.46587588530702       -0.84043928574854
C           -4.04034802238737       -0.63085360887355        0.43507002311027
H           -2.64296039596342       -2.35717946295960       -1.12725730545251
H           -2.25473941316398       -0.69006181119324       -1.58175905223057
H           -1.02785862039462       -1.70670151479901       -0.81521461158740
O           -4.85437921024414       -1.63699568851967        0.78329036664321
N           -4.34944832662248        0.51827961275158        0.03785393250593
H           -6.36588380570190        0.40227771914276       -2.42887414035083
C           -5.68042893247962        1.05100557326008       -0.16221542865406
H           -6.00730521706896        1.43077771847643        0.81457651777657
C           -5.54679990960946        2.22978809241937       -1.13571733734917
C           -6.71449286894011        0.02366835994865       -0.57972863351854
H           -4.80252880713599        2.90477977665855       -0.71065074973921
H           -5.12831026781283        1.87481330592007       -2.08383901866459
C           -6.84819387437833        3.00100673328673       -1.39044044377777
O           -6.91395424473150       -0.19004833262442       -1.89879512571834
H           -7.62470388668195        2.30978135585033       -1.73793334294149
C           -7.35481172657814        3.67900224429011       -0.11944597684932
C           -6.61246311031130        4.04530026628236       -2.48146721217889
H           -6.58464649028378        4.32166202680884        0.30158392586633
H           -8.22594753590324        4.29005736380045       -0.34426265764089
H           -7.64420602969247        2.94513206202409        0.62810039064875
H           -6.27387146186736        3.57863102926615       -3.40446805458048
H           -7.53009354268595        4.58875093433756       -2.69268373748545
H           -5.85684266038879        4.75968382579031       -2.16217895475081
N           -7.30054293440217       -0.63106747903667        0.31926759351498
H           -7.30597054025015       -1.17739824993846        2.03555726193581
C           -8.25911766311465       -1.67716784191774        0.05561361065024
H           -9.11108690856045       -1.29674453582504       -0.52103529921693
C           -7.65895482804236       -2.88209698981816       -0.67902017845330
C           -8.75717128247252       -2.16623614668180        1.42471925630846
H           -6.77285872231427       -3.22560997938131       -0.14996931073865
H           -8.39327148779356       -3.68228624485728       -0.71046040896210
H           -7.38232039830834       -2.60381260547140       -1.69205348841722
O           -7.99341625647428       -1.76504630786519        2.43257774198186
O           -9.72073615150066       -2.86866290616478        1.56156027106027
