42
 energy: -62.486133512852 gnorm: 0.000479833730 xtb: 6.7.1 (edcfbbe)
N           -1.30348505129360       -1.62165456215641        0.75457682204637
H           -0.29206102492123       -1.64689622414430        0.72578213448663
H           -1.63840532451130       -2.55882784010768        0.54826602289815
H           -2.72308459409875       -1.00254625680174        1.89895374886036
C           -1.83664707796718       -0.67187499972156       -0.21986023672657
H           -1.23493618642652        0.24289563792865       -0.15491201792435
C           -1.83775465377215       -1.16785441936261       -1.66571630187045
C           -3.24040316519074       -0.29684831847841        0.23586379888750
H           -2.36845805526063       -2.11676080116180       -1.74156865380725
H           -2.33792143571619       -0.43790374326375       -2.29437915668324
H           -0.81929659665103       -1.30994279195496       -2.02050652881471
O           -3.51815994581267       -0.57497259679149        1.52007113451772
N           -4.02756796371906        0.27217661943211       -0.56986401004955
H           -4.79482489803732       -1.64590998232741       -0.69895500435354
C           -5.36907548826081        0.63633085148458       -0.16025248138810
H           -5.38168141451967        0.96409100408654        0.88898128408948
C           -5.76196725948332        1.80181349520398       -1.08533931418651
C           -6.29544228559937       -0.56581293634769       -0.25353466936562
H           -5.00337073034748        2.57337596252458       -0.93384343831771
H           -5.66212097901757        1.44634883106362       -2.11243957632894
C           -7.14703036217007        2.42418379288780       -0.90211940389498
O           -5.73352806932381       -1.76795935703402       -0.48781693825390
H           -7.89642392662539        1.70143483925803       -1.23020862670793
C           -7.42192965974218        2.80259586672729        0.55049929341575
C           -7.25938082050210        3.65944665423494       -1.79529313752531
H           -6.65784080012391        3.48598666626619        0.91602260604997
H           -8.38770389780531        3.29564586215236        0.63214546514732
H           -7.43312875670471        1.92066140538123        1.18509709328108
H           -7.05692505615062        3.40430880616896       -2.83269753423066
H           -8.26103456328575        4.07747935146540       -1.73545578821483
H           -6.54935177880736        4.42334141754694       -1.48465427458291
N           -7.54435275323295       -0.40887427236449       -0.18621454671271
H           -9.09121828716195        0.61266114707600        0.08324420460067
C           -8.43902252605069       -1.54026053355706       -0.30081146813576
H           -8.17850490977378       -2.17981601963051       -1.15331667107860
C           -8.44464826861324       -2.39390409473590        0.97397676557858
C           -9.85755801096021       -0.99253168192558       -0.49541499684012
H           -8.68186698559163       -1.77336607964327        1.83614371067994
H           -9.19321973147522       -3.17578430027664        0.88108284447358
H           -7.46687880388314       -2.84524328191629        1.12064580349639
O           -9.98711436048556        0.28328259759790       -0.15019159759286
O          -10.77086480134228       -1.66454157778073       -0.88705126029858
