42
 energy: -62.486133510805 gnorm: 0.000479961878 xtb: 6.7.1 (edcfbbe)
N           -0.75316866024031       -0.03425209342451       -0.24412974162371
H            0.08957419926544       -0.22044646216356       -0.77396881370427
H           -0.64397674411332       -0.47055407674978        0.66724213323837
H           -1.92921393934362        1.45406670188099        0.16986192256105
C           -1.92859238349729       -0.58076320677010       -0.91971022967854
H           -1.87535906390035       -0.26310743267248       -1.96940442465610
C           -2.05181330347084       -2.10197101488120       -0.86446407725615
C           -3.14623392242348        0.11324232841221       -0.32386582204155
H           -2.11153211370848       -2.43850341940485        0.16880739130758
H           -2.95125427713477       -2.41318302693144       -1.38487823301395
H           -1.18910890036427       -2.56760123861957       -1.33657884601316
O           -2.89798749680104        1.32063183432942        0.20514109415027
N           -4.26445416406189       -0.45908216327456       -0.37026782521459
H           -5.18076222253170       -2.16874383323299        0.23358885897423
C           -5.49328510333734        0.12950962787276        0.13201078625528
H           -5.40939298335661        0.25757392079115        1.22159397983561
C           -5.84823226080256        1.47620561824945       -0.50899396095362
C           -6.54267468132502       -0.93252050310182       -0.13732911060653
H           -4.95212753473030        2.09678263364578       -0.53229909193767
H           -6.15692986889864        1.28237924415813       -1.53733087660014
C           -6.95514271755712        2.23398268832158        0.23435510196206
O           -6.14854823184642       -2.18889674590960        0.13989065416147
H           -7.74121392435741        1.52404481389403        0.50634761277976
C           -6.41883065332764        2.88641626431979        1.50709628995343
C           -7.55317298590591        3.30227544444778       -0.67943905492904
H           -5.64419781872978        3.61066926829873        1.26345933970376
H           -7.21864743561707        3.40301365697965        2.03269588229767
H           -5.99384677844339        2.14884189364084        2.18341098670539
H           -7.98630880300244        2.85628237500127       -1.57125961043716
H           -8.33479862816958        3.85152180004576       -0.16009065473876
H           -6.78501700200801        4.00943639054059       -0.98605088387793
N           -7.65107689402155       -0.64153644889188       -0.65664939726301
H           -8.69689645922503        0.54139988441856       -1.53307095785951
C           -8.63431746651453       -1.65187288121688       -0.97167502238687
H           -8.17764620688691       -2.52634376855434       -1.45330924123748
C           -9.39395682211032       -2.11911674208981        0.27443393794529
C           -9.63669292261918       -1.01452439866179       -1.94558647250329
H           -9.82263133097269       -1.26318706884932        0.79213601917488
H          -10.19348131586414       -2.79116989123814       -0.02418844833817
H           -8.71552651532710       -2.63826107854597        0.94673130714423
O           -9.47642941807546        0.29569960353926       -2.08657008702024
O          -10.49128550636932       -1.64036436811492       -2.50875741008635
