42
 energy: -62.486133507485 gnorm: 0.000480205925 xtb: 6.7.1 (edcfbbe)
N           -1.75605944898436       -0.59698440560916        1.31316299157830
H           -0.84231722696642       -1.00861839678994        1.16663903717529
H           -2.12687896132548       -0.98226723265497        2.17786408345078
H           -2.64741448587092        1.10650069279336        1.31515560534405
C           -2.65779343909157       -0.92216709712565        0.20712497990403
H           -2.11091979386202       -0.73263328811926       -0.72571408287310
C           -3.17734680769893       -2.35789631394385        0.20624238656818
C           -3.80369690513001        0.07685391190391        0.25617867673498
H           -3.67925137877300       -2.57802461641764        1.14589999103161
H           -3.89437097092650       -2.47826171266917       -0.59801821693564
H           -2.35710939005213       -3.05971560834958        0.06984069674347
O           -3.53767369719063        1.21592636764895        0.92310853907539
N           -4.89267399561840       -0.19875947015559       -0.30660524324091
H           -8.09541597518267        1.24861234561956       -1.51917824336954
C           -5.99529087804671        0.73673639311716       -0.28258787616119
H           -6.04840824777087        1.23513347182350        0.69858284085726
C           -5.83367846158454        1.81199428567189       -1.37280070009244
C           -7.25238736945042       -0.09966044086259       -0.43870704367765
H           -4.76609946895187        2.00745353006661       -1.48904071057378
H           -6.18149404495247        1.41054728211614       -2.32952265689602
C           -6.53648470162356        3.13896737093400       -1.03857166899409
O           -8.29886842820987        0.38520308473090       -1.13781823053556
H           -7.48151038429010        2.93996533808516       -0.51625949252879
C           -5.66169846527109        3.97956419416821       -0.11027064780191
C           -6.84463481542838        3.91734360944489       -2.31721088020677
H           -4.76316662697764        4.30174003391551       -0.63197625620034
H           -6.19902057305158        4.86274858694240        0.22736422618876
H           -5.35795647457131        3.40534409904091        0.76122781154271
H           -7.51588941699397        3.36174096853214       -2.97033735351614
H           -7.31489983519304        4.86820189848349       -2.07788216844441
H           -5.92656711869075        4.11898284311180       -2.86470947686931
N           -7.26696884268201       -1.21168001961478        0.14573511455309
H           -6.30897310680957       -2.40791176022281        1.00888417095505
C           -8.35995500624993       -2.14925361849359        0.12391477537484
H           -9.27304744391963       -1.70786290466230        0.54322884801512
C           -8.66974323985523       -2.69150988127719       -1.27540292670111
C           -7.92544445616073       -3.32582051113997        1.01849124717579
H           -7.75942954121875       -3.07525078272736       -1.73165410591555
H           -9.39428473910642       -3.49691408556391       -1.19269755373812
H           -9.07543237945210       -1.90184509501698       -1.90192215244822
O           -6.65452872138070       -3.25657284659815        1.39091845479179
O           -8.66140603346551       -4.22197611588292        1.32825849744494
