42
 energy: -62.486133498893 gnorm: 0.000481682373 xtb: 6.7.1 (edcfbbe)
N           -2.28401172763745       -1.41088354501511        1.69052776845862
H           -1.87278228520980       -0.60000099498987        2.14031131374014
H           -1.56809760773263       -2.12289611788784        1.61035691632814
H           -4.13251417143113       -1.34605943011090        2.21080914718013
C           -2.82181366063001       -1.06100523467380        0.37814538150750
H           -2.18275468364796       -0.38378217010484       -0.20426395197750
C           -3.07738866067829       -2.33530698317972       -0.42839805882783
C           -4.16834842033864       -0.39094049125593        0.60108890074884
H           -3.72168003351054       -3.00860693717310        0.13294809654420
H           -3.56255246977488       -2.08114064486800       -1.36589086189447
H           -2.13969638976888       -2.84402326221490       -0.64267331297885
O           -4.77811398526139       -0.77710937006033        1.73604054679367
N           -4.54409287748457        0.48322367501069       -0.21605789370573
H           -7.97370899583417        1.27498948473186       -1.49622090100005
C           -5.85696988758273        1.07584955434840       -0.29012538115078
H           -6.05003302078833        1.64157544208002        0.63904642129711
C           -5.83330941746988        2.05397983338771       -1.47920464040647
C           -6.98753536285769        0.06161756644138       -0.36542320052027
H           -4.78643615288237        2.31393789634413       -1.64079741144764
H           -6.16365660413152        1.53924193954514       -2.38605778157758
C           -6.63676522126180        3.34673942381036       -1.26138994088557
O           -8.07558566200405        0.40272035743226       -1.09618408214671
H           -7.58191641355247        3.12313686412698       -0.74832908380982
C           -5.85358121380553        4.32079940440364       -0.38325421649349
C           -6.96057994467901        3.99958588113102       -2.60465523753306
H           -4.94113570310546        4.63047798819013       -0.88771550150388
H           -6.44777368216267        5.20690728408163       -0.17192339698331
H           -5.57997590951755        3.85959791455910        0.56254911548160
H           -7.56639732123144        3.34427840378494       -3.22821468155299
H           -7.50856601271654        4.92691323141420       -2.45507253474516
H           -6.04257785958998        4.22779199868723       -3.14138921889658
N           -6.92891208602175       -1.02678270121121        0.25937902309289
H           -6.26437638651294       -1.97097270747867        1.73584262021318
C           -7.99833111839227       -1.99469488976086        0.19453430359107
H           -8.98155774338437       -1.52116170697642        0.32162964852328
C           -7.99210425719107       -2.76094825742548       -1.13258241085979
C           -7.79774517081812       -2.99653781988263        1.34055434079607
H           -7.00042498065843       -3.16898969324239       -1.31851421697515
H           -8.70842218547940       -3.57569213075153       -1.07537780235174
H           -8.26181178138140       -2.09685157576899       -1.94960402930862
O           -6.71597543268121       -2.78439847374202        2.07349728906389
O           -8.55617877571308       -3.90660498386160        1.54099429682180
