42
 energy: -62.486133510300 gnorm: 0.000479724331 xtb: 6.7.1 (edcfbbe)
N           -1.59357781207544       -0.21881626704351        1.00765038859530
H           -0.74698932970188       -0.77154454678709        0.93945336325377
H           -1.83705497330953       -0.15907749078053        1.99287159132495
H           -2.37096286732488        1.42288258682638        0.27221006646290
C           -2.68774072762204       -0.85757228745545        0.27325184958529
H           -2.31186022765208       -1.06473872941491       -0.73841166930080
C           -3.20999053868171       -2.15103287268510        0.88989325601880
C           -3.78220137481389        0.18743057364967        0.12287274809782
H           -3.62564291387189       -1.95920964116713        1.87563210757053
H           -3.99464751991251       -2.56207626473372        0.26552919219852
H           -2.40490106350656       -2.87791925575436        0.97792362548449
O           -3.32539692126644        1.45738611063040        0.06527593058799
N           -4.98192973886547       -0.17229264978254        0.07140834709865
H           -8.33647727820134        1.33968670749214       -0.92416205526087
C           -6.08735869363651        0.73226346820046       -0.12525331269751
H           -6.17924115767841        1.38127346369741        0.76005814709234
C           -5.97056777203665        1.62157458194348       -1.38586497045807
C           -7.33353050676717       -0.13213033205502       -0.19014836796669
H           -4.91876989523010        1.68924593443443       -1.66200903388079
H           -6.48416866649978        1.12603241076571       -2.21505495343903
C           -6.50806192454872        3.05067429006795       -1.20252659488294
O           -8.47876964592632        0.42702850458614       -0.64332346757325
H           -7.43018740963614        3.03561847461271       -0.60440588328057
C           -5.49161496393943        3.91573244853450       -0.46117206400570
C           -6.83224206901514        3.66759552825187       -2.56239935208289
H           -4.59126913140094        4.03120045653417       -1.05945344912854
H           -5.90369797367828        4.90206663186823       -0.26004012918421
H           -5.20849095449759        3.45970609705977        0.48371999859379
H           -7.60430963532882        3.10001307187995       -3.07897743070286
H           -7.18367967161722        4.68977523994299       -2.44190489848862
H           -5.94307454318959        3.68334886825529       -3.18841420500285
N           -7.26129977090946       -1.31958461728500        0.20652341427576
H           -6.25578578922565       -2.53392707166575        0.98495109416009
C           -8.35821151718051       -2.25150786182297        0.21854688252389
H           -9.23118251309475       -1.84425007412990        0.74537799536288
C           -8.78740405056675       -2.68131624622264       -1.18769818110963
C           -7.85504834074586       -3.48925088865923        0.98644619540852
H           -7.92104464114778       -3.02753685414477       -1.74770883633916
H           -9.50749784773127       -3.49088281480648       -1.10887468196442
H           -9.23913588470490       -1.84370909995721       -1.71277940247955
O           -6.57291839523917       -3.41770522045998        1.31126670266746
O           -8.55825460836262       -4.42647994850400        1.24865472484588
