42
 energy: -62.486133520115 gnorm: 0.000478717583 xtb: 6.7.1 (edcfbbe)
N           -1.16425154309649       -0.32604840745916       -1.63626437141852
H           -0.53521488997871       -0.92792404067270       -2.15353649942013
H           -0.62963369613768        0.10754786363225       -0.88841421015180
H           -2.49190727410141        1.00771738876771       -1.97038247690042
C           -2.27710038849044       -1.08934900625999       -1.07473650824253
H           -2.66493335700919       -1.73461337452423       -1.87359344144901
C           -1.91236694501263       -1.95009968159869        0.13234167602935
C           -3.39123663457401       -0.09483806589508       -0.75147663677111
H           -1.53863764416637       -1.32435235627850        0.94045169634165
H           -2.79425699679757       -2.47508703213103        0.48227687341055
H           -1.14731631812278       -2.67569512591767       -0.13712586325513
O           -3.31544226611685        1.05239171105038       -1.44165516284931
N           -4.26291765646014       -0.43597954879515        0.08430286898230
H           -5.68001467267191       -1.67444335760275        1.80112364527999
C           -5.43404243015189        0.30931103171879        0.49738392832274
H           -5.28974762639935        0.52681967798872        1.56653569987799
C           -5.77357540137057        1.60133447385915       -0.24858129768415
C           -6.52565035829811       -0.73755777907422        0.37383032165149
H           -4.91886129691392        2.27561415749388       -0.19088579555120
H           -5.93429467519956        1.35246059577216       -1.29750972197209
C           -7.01364343034648        2.31277406476096        0.30562549569119
O           -6.49325129572446       -1.73279533408962        1.28345094536217
H           -7.81072821455711        1.57535479871505        0.44058803252555
C           -6.72621425598589        2.97744555244287        1.65075040941906
C           -7.49025495382639        3.36102259260873       -0.69812219342740
H           -5.92321525642570        3.70501096526600        1.54983125921013
H           -7.61185469881263        3.49519572173291        2.01215948272902
H           -6.43673859612202        2.24758649667600        2.40306172479997
H           -7.75813147937494        2.89533592681552       -1.64324889605360
H           -8.36270832080641        3.88631171263814       -0.31628955417000
H           -6.70505567684964        4.09066028836596       -0.88436670734999
N           -7.31698279236465       -0.71739490190239       -0.60283451087996
H           -7.80615297220783       -0.01303717691234       -2.18261427183248
C           -8.30446799834607       -1.74679308858344       -0.82467164130246
H           -7.88200431948067       -2.75176544545852       -0.69914161465110
C           -9.50690028525719       -1.59471794611768        0.11356462258246
C           -8.79801843712757       -1.58513872693398       -2.27115967268848
H           -9.91793615813593       -0.59025557633797        0.03124629078353
H          -10.27139650827329       -2.31487776030723       -0.16396127416740
H           -9.19914588114468       -1.77038522007988        1.14126928222352
O           -8.38977776390939       -0.45911581918945       -2.84266511580759
O           -9.50020989295886       -2.38965605385406       -2.81762166413602
