42
 energy: -62.486133525743 gnorm: 0.000477910738 xtb: 6.7.1 (edcfbbe)
N           -0.90545821750375       -0.37169699545636       -0.76638020086913
H           -0.20461890604129       -0.83097171642397       -1.33499941679691
H           -0.62993616795355       -0.48087114358185        0.20578274100751
H           -1.87717972695675        1.28444214660862       -0.70101900861337
C           -2.22400208306265       -0.97036115173916       -0.97707151286061
H           -2.36878144247831       -1.06611881565587       -2.06064388170454
C           -2.42227255464601       -2.33490550847572       -0.32353783072915
C           -3.26391642264473        0.03493786771432       -0.49787042664553
H           -2.23588801579105       -2.26840584789525        0.74661998766609
H           -3.44868106896052       -2.65077934648847       -0.47395622780973
H           -1.74580407564834       -3.06905891708400       -0.75659749200072
O           -2.82713098958073        1.31030253177996       -0.46551008344999
N           -4.40503026732371       -0.37641908216509       -0.18094002908146
H           -7.04696596128323        0.21444792917305        2.09782048087330
C           -5.49388472253305        0.47810067705983        0.22451354083544
H           -5.27949331434367        0.87720260133224        1.22785053766596
C           -5.75678637893254        1.64367367899256       -0.74946395110294
C           -6.73472417052820       -0.38560689720168        0.26562187161284
H           -4.85974125531404        2.25987862386000       -0.80690544714957
H           -5.93415182922454        1.19292243177503       -1.72733979418791
C           -6.95183646315421        2.52506672643483       -0.37096580413942
O           -7.48108656087600       -0.33377634484743        1.43359220237041
H           -7.82877872018041        1.89137775886765       -0.19749405936061
C           -6.67581005058462        3.34940230063013        0.88574975707495
C           -7.27457772859623        3.45863272794630       -1.53621819740910
H           -5.80591537788810        3.98491904473876        0.73321630063807
H           -7.52885621563873        3.98447389093045        1.11398056939018
H           -6.48752244290908        2.72029928759919        1.75335534539573
H           -7.52425304216693        2.88513898632269       -2.42517079502519
H           -8.12127957346734        4.09558793861526       -1.29129018291953
H           -6.41962502568161        4.09258466475738       -1.76193263018599
N           -7.03586295837979       -1.07105797017503       -0.73199509329158
H           -9.10575608979849       -0.34251762392627        0.63968262819943
C           -8.16074437641545       -1.95601311025511       -0.88219938058766
H           -7.99017514739259       -2.48281869147150       -1.82824090002289
C           -8.31400672887995       -2.98668429813467        0.24486564628282
C           -9.48654395939376       -1.19559633752594       -1.03963275289602
H           -8.54929351346074       -2.50968205150292        1.19377394953161
H           -9.10923843252450       -3.68397336209340       -0.00708411449364
H           -7.38180789429670       -3.53573819183765        0.35575521218185
O           -9.79200917823311       -0.35076034260596       -0.05430981668393
O          -10.21676420357814       -1.36160371816867       -1.97447657175692
