42
 energy: -62.486133514637 gnorm: 0.000479116571 xtb: 6.7.1 (edcfbbe)
N           -1.03443980522699       -0.33307218368901       -1.53352459099992
H           -0.27462292172373       -0.93962170574253       -1.81604122568515
H           -0.64082447391398        0.40182624919954       -0.95217640434731
H           -2.52471841616853        0.56667491630206       -2.31337543609294
C           -2.04819342988026       -1.07131204096148       -0.78307345782778
H           -2.25811422167566       -1.99090077130275       -1.34673773010649
C           -1.64695437059809       -1.43480235602990        0.64456248017031
C           -3.32838123478148       -0.23444653307179       -0.82077198626339
H           -1.40951622242957       -0.53354773161632        1.20615211707951
H           -2.46987086684741       -1.93670374501817        1.14224771203338
H           -0.77764373804686       -2.08917479235562        0.63893735261213
O           -3.38975673549019        0.61413122427726       -1.85417036230549
N           -4.18342024817652       -0.42040573338479        0.08342656898240
H           -5.08377437926375       -2.03148668453297       -0.52789437254957
C           -5.49478716687852        0.18586120838925        0.19512534756843
H           -5.67003347519392        0.25554648817715        1.27674111456266
C           -5.60736715485291        1.59111931340115       -0.42026352944891
C           -6.51187128704681       -0.80638519235271       -0.34841290274336
H           -4.77745827599341        2.17344716832804       -0.00965677010957
H           -5.45701723753995        1.51496924680559       -1.49736895643130
C           -6.91275928736553        2.35276121646326       -0.17276436324869
O           -6.03608408665925       -2.00712392816849       -0.72691094847174
H           -7.70282163687855        1.87414590991746       -0.75467365688488
C           -7.32055082183982        2.36850781391846        1.29758659607375
C           -6.75064130837802        3.78402186123293       -0.68514453941877
H           -6.51532296786571        2.76487704232965        1.91344319266806
H           -8.19517594366264        3.00036101149520        1.43309312909592
H           -7.56800053318586        1.36895828383881        1.64484541065355
H           -6.44816056536554        3.78661326710931       -1.72962917522154
H           -7.69018068911090        4.32431633948107       -0.60005956546317
H           -5.99604700022997        4.31490504235091       -0.10785594722081
N           -7.73446987048972       -0.50543171269537       -0.39850276669087
H           -9.17166250789557        0.62357860670416       -0.05681038527692
C           -8.71721467949156       -1.44811859687158       -0.89045681089577
H           -8.41983234273257       -1.87406450244344       -1.85631485367788
C           -8.96780084978039       -2.59460999971203        0.09812025863654
C          -10.03959368399269       -0.69018034197242       -1.06302815920759
H           -9.22853415861240       -2.19276578377848        1.07555424512703
H           -9.78829250108588       -3.20710604729081       -0.26512856730969
H           -8.07472829353526       -3.20650130932736        0.19198595338093
O          -10.06743303064335        0.48050499402837       -0.43675054633271
O          -10.97211758441697       -1.13139031163900       -1.67538871921020
