42
 energy: -62.486133489566 gnorm: 0.000482493130 xtb: 6.7.1 (edcfbbe)
N           -1.56696190326333       -0.54592758506738        1.23041517778183
H           -0.68041216728714       -1.01064265342480        1.07303967566965
H           -1.95313972400438       -0.91741709532107        2.09451102941397
H           -2.38326430100782        1.23856472923120        1.18170006129580
C           -2.49340323035228       -0.81499788957453        0.12937228653638
H           -1.96507279451046       -0.56178595274813       -0.80048569990409
C           -2.99738822838171       -2.25283930743633        0.04673046212615
C           -3.63466527925657        0.17800539983060        0.26358325380052
H           -3.49782140424108       -2.53294717226334        0.97018461343911
H           -3.70980113763617       -2.33871494798221       -0.76577096804281
H           -2.16737841169678       -2.93459112392280       -0.12773962335765
O           -3.29331818173291        1.34869631623180        0.84412736110574
N           -4.78045147361372       -0.11567952616534       -0.15620593183960
H           -8.16154042729523        1.67397631940897        0.17610634088663
C           -5.86281433574495        0.83745159679691       -0.08596341128277
H           -5.74352937682456        1.52773861171092        0.76400158841813
C           -5.83381314032669        1.63185742453728       -1.41202528192670
C           -7.13490301959900        0.04563127333774        0.10804411298844
H           -4.81996516524918        2.03004219178080       -1.50268436480869
H           -5.97622973717525        0.91021719298252       -2.21959049436567
C           -6.81739156891697        2.79423928303662       -1.59184562912226
O           -8.30381980264817        0.72063442708531        0.21514191233359
H           -7.84454255870343        2.41336552248394       -1.62651050047358
C           -6.68957884776099        3.83823167266661       -0.48235542173860
C           -6.54355629929632        3.45470964570001       -2.94443948918329
H           -5.66742137947271        4.20793773081224       -0.43704135910426
H           -7.34878745332294        4.68061127688504       -0.68162295625604
H           -6.94391382254833        3.44062632589161        0.49886135172057
H           -6.63591107140397        2.73113370812202       -3.75082155079966
H           -7.25184612714683        4.26025549967832       -3.12414999095491
H           -5.53849393153480        3.86984874909599       -2.96868261985958
N           -7.04930960458570       -1.19585111647475        0.27040150267421
H           -5.96795002516005       -2.57433086609335        0.51157429863104
C           -8.16648398510448       -2.06116112844529        0.54038742037655
H           -8.82032285797835       -1.65887913151671        1.32538699750709
C           -9.00618041123421       -2.32992651124976       -0.71261987777178
C           -7.56307803146001       -3.39195229369375        1.02601378095278
H           -8.36503357647270       -2.68088529939221       -1.51859782962642
H           -9.74905871882985       -3.09078167005491       -0.49022888369565
H           -9.50526114515690       -1.41686678333403       -1.02741064757886
O           -6.24685111759950       -3.45246694857555        0.88187745142620
O           -8.22552546628609       -4.28715542296024        1.47426662812737
