42
 energy: -62.486133525260 gnorm: 0.000479227169 xtb: 6.7.1 (edcfbbe)
N           -1.76046653609536       -1.05761442447341       -0.25286652048959
H           -1.13167201441460       -1.82918310589268       -0.06552208233230
H           -1.29338541799747       -0.20392937025180        0.04110185558985
H           -2.90737874924999       -0.43951391942048       -1.66702735380554
C           -3.01392301175279       -1.21409914352864        0.48636084099515
H           -3.35801359880266       -2.24421661417236        0.32739008983345
C           -2.91241294371850       -0.94765478937422        1.98484754901491
C           -4.04616300945372       -0.31365160039822       -0.18174963444375
H           -2.55704875688993        0.06524755548099        2.16256576972927
H           -3.89349820783344       -1.05085903361123        2.43441169538832
H           -2.22594652756745       -1.65230610425371        2.45001870502880
O           -3.78424387382523       -0.04725191778448       -1.47692003355435
N           -5.04315132528438        0.05508400749944        0.48288442278764
H           -8.09376597980053        1.11953058914288       -1.51660065741587
C           -6.14621819913130        0.83914116667011       -0.01555980563668
H           -6.48789454806542        1.41103341632457        0.86131606102711
C           -5.85973032311719        1.82399129111225       -1.16473845728258
C           -7.26224181062591       -0.14464342645886       -0.33096003367773
H           -4.80422051440150        2.09352661670407       -1.12206800170189
H           -6.01198303480876        1.32384746285389       -2.12510950817367
C           -6.68389311872057        3.12092573779433       -1.08484968676701
O           -8.25431878124625        0.23586173524649       -1.16143173734701
H           -7.70763337998473        2.90334303828354       -0.75135880251351
C           -6.06757043700057        4.08412571741010       -0.07165903137482
C           -6.75562026887962        3.78441533112587       -2.45964621387009
H           -5.07706805027019        4.39186907401326       -0.39994308342465
H           -6.68520217127823        4.97321570334009        0.03379505300842
H           -5.97357292028397        3.61575374993986        0.90530155735941
H           -7.24283659197268        3.13740535761116       -3.18698493890201
H           -7.31480159225289        4.71569796945353       -2.40453373641305
H           -5.75415744513471        4.00774815815028       -2.82048299971230
N           -7.21853249707948       -1.27199080363105        0.22142077329271
H           -6.38131789699197       -2.29907997434409        1.39403662717655
C           -8.19554927287891       -2.31467350348502        0.03978671938279
H           -9.20610493562337       -1.96411465866964        0.28714313067223
C           -8.20524195113846       -2.88868405420115       -1.38024699699816
C           -7.81346821391656       -3.43452135457885        1.02669475841350
H           -7.19503601029185       -3.17122699630528       -1.67052665163860
H           -8.84121101018319       -3.76923756497488       -1.40298069021638
H           -8.58280485724467       -2.14949750045510       -2.08167156219167
O           -6.69209843307837       -3.19231844507493        1.69144134210047
O           -8.46479304623809       -4.43352089488157        1.16385585194932
