42
 energy: -62.486133518090 gnorm: 0.000479054690 xtb: 6.7.1 (edcfbbe)
N           -2.11673969540376       -1.84668050382508        1.39934078576176
H           -2.19257196698803       -1.57504991751798        2.37389046030437
H           -1.16939259249754       -2.16409322173755        1.23247870713146
H           -3.88818996216885       -2.41076516886451        1.01780733444048
C           -2.45940208481022       -0.73134428834036        0.52064828262026
H           -2.03588485464359        0.23181068466986        0.83544192241912
C           -1.99860575212837       -1.04130755547425       -0.90333548037369
C           -3.98462662570451       -0.61032690421810        0.51840981804215
H           -2.42041868257438       -1.98816845519490       -1.23336206186017
H           -2.33020560580452       -0.25396682860782       -1.57299050449887
H           -0.91326112793966       -1.10752922821247       -0.94676743292428
O           -4.59843591351398       -1.77622917491867        0.77275564897812
N           -4.45787938516991        0.51372686938618        0.24925522080100
H           -8.00226487688117        1.91390929216228        0.20639041212533
C           -5.77577265066409        1.05739424836350        0.10420713261396
H           -5.81131707215193        1.89243127750785        0.81917766735237
C           -5.74812252652134        1.62550065522131       -1.34654642886317
C           -7.03600829446119        0.23997698220943        0.30811119807530
H           -4.73904059739959        2.02094505474313       -1.48128695513135
H           -5.85777049047001        0.77387274001264       -2.02228615147940
C           -6.74461722797427        2.71695787239053       -1.75562642436429
O           -8.18605228862280        0.97039679297422        0.27610224734731
H           -7.76735299876130        2.32558072898807       -1.73007545006647
C           -6.64418754645712        3.95749212336494       -0.86813660977939
C           -6.45814170864840        3.11004748655528       -3.20638202422977
H           -5.63177459577278        4.35457109412468       -0.89819390587028
H           -7.32411927998222        4.72860896206380       -1.22406404546476
H           -6.89131810449574        3.75227775086060        0.17238920620733
H           -6.53161947147504        2.24483380941632       -3.86086782143641
H           -7.17292292285806        3.85636378570689       -3.54528679802552
H           -5.45743306290198        3.52632875477037       -3.29820735645866
N           -7.05532087751596       -0.98356384121609        0.58605112487245
H           -6.21477489823505       -2.55388859088443        1.27102363349491
C           -8.30805051920269       -1.67003365245413        0.79842187937413
H           -9.02128453308650       -1.05616380025520        1.36509389641413
C           -8.95228956096689       -2.06426626792656       -0.53597065062769
C           -8.02979584574133       -2.95022625252636        1.59518461496261
H           -8.23919850740684       -2.62253226307403       -1.13948942315868
H           -9.82316869618966       -2.68498526223317       -0.34454570744496
H           -9.25623270308328       -1.17223362206666       -1.07874203987852
O           -6.74888808130988       -3.25978798768059        1.70963080298706
O           -8.91173708446153       -3.62190969370156        2.05928640646603
