42
 energy: -62.486133517657 gnorm: 0.000479256791 xtb: 6.7.1 (edcfbbe)
N           -1.31916844955953       -0.71374767402747        0.09446534515419
H           -0.68981164919600       -1.46665734527583       -0.15414794549740
H           -1.01699341296530       -0.34642743968484        0.99265474496417
H           -2.06022812458211        0.82427635624192       -0.66106567618615
C           -2.69907581581922       -1.19362911892076        0.19537991042102
H           -2.87546814245097       -1.87728160745639       -0.64329879473693
C           -3.01701483564912       -1.91234375890725        1.50388774216482
C           -3.62065142227686        0.00633463474740       -0.02574129294136
H           -2.82436304442183       -1.25311909045991        2.34841387943688
H           -4.06300027954794       -2.19607346564231        1.51999385227309
H           -2.40257795872470       -2.80466473540229        1.60425752975305
O           -3.00424711738063        1.07741299968811       -0.56421398858959
N           -4.82481724776037       -0.11197726805617        0.29606318155585
H           -8.20206022823166        1.65639364553788        0.40772921041143
C           -5.88477331799066        0.85133631389197        0.14384589010435
H           -5.88027201682722        1.51031752280943        1.02391037621504
C           -5.76906081282854        1.69395683219032       -1.14864533662093
C           -7.17036674577553        0.04695976591517        0.15429342662105
H           -4.78164238306974        2.15527544616929       -1.14455498264555
H           -5.80353002738125        0.99463869720004       -1.98808444133522
C           -6.80315294937692        2.80221947957978       -1.38018766444997
O           -8.34375534667445        0.70982823007277        0.28690877951378
H           -7.80575383271862        2.36975378635504       -1.47062818254812
C           -6.78977119890382        3.84680558320583       -0.26345935710745
C           -6.48880032075355        3.48631389818011       -2.71191527212979
H           -5.79948408956534        4.29045914043956       -0.18333545927159
H           -7.50138905587460        4.64031034822877       -0.48233738697668
H           -7.04697705074615        3.42807708195938        0.70867144049605
H           -6.50830916650971        2.76706452419465       -3.52711950846188
H           -7.22011703687920        4.26320362157828       -2.92320384733797
H           -5.50177879290196        3.94245034188979       -2.68071862564652
N           -7.09947487336598       -1.20523651382066        0.12611196842749
H           -6.03951826903509       -2.59006511146517        0.29827495832878
C           -8.23194971554405       -2.08973244582254        0.19397241026504
H           -8.92912015622816       -1.80472583113945        0.99288825474495
C           -8.99933713263293       -2.15673966933771       -1.13006941271566
C           -7.65870242998784       -3.48471756657238        0.50853437813303
H           -8.31383824938131       -2.38454269071436       -1.94380427697141
H           -9.75104421739543       -2.93863761157762       -1.06857118782309
H           -9.48276604900017       -1.20347445406199       -1.32858547377542
O           -6.33377985046718       -3.52025406094692        0.48995750744150
O           -8.34824840797926       -4.44136645697494        0.73240813025315
