42
 energy: -62.486133520380 gnorm: 0.000479361538 xtb: 6.7.1 (edcfbbe)
N           -1.90853102438273       -1.58271405928686       -0.88095777281227
H           -1.74268606719812       -1.20070862380606       -1.80602289545157
H           -1.80696556751250       -2.58926948797470       -0.93363604117045
H           -1.31936634285537       -0.25799756618306        0.29748690847574
C           -3.23717223091888       -1.21620508990521       -0.38748144633576
H           -3.99820336352293       -1.25651343480410       -1.17495678284556
C           -3.63825743346146       -2.15872546538093        0.74963159336731
C           -3.12992594647093        0.19273422902278        0.22836100759513
H           -2.87564142891386       -2.14615316744190        1.52551254178652
H           -4.58199337994647       -1.83816379397697        1.18279036402663
H           -3.74844048577387       -3.17693366328232        0.38034509014637
O           -1.88028736295310        0.49008440308421        0.59964744722419
N           -4.02947576758468        1.00221356115205        0.56340103594455
H           -5.37261192870738        0.42437034923553       -2.11733494868747
C           -5.40771721145199        1.14903709787361        0.21787836618020
H           -5.91083698878901        1.33721286851925        1.17415221394000
C           -5.52759250049016        2.41817815007020       -0.65018439741468
C           -6.14229041902549       -0.01403557289571       -0.41660451688070
H           -5.08268201892938        3.23209872028756       -0.07706917199458
H           -4.91571806051894        2.30261702220456       -1.55215380521097
C           -6.96288309943574        2.78790583365184       -1.04398766652578
O           -5.91788699999762       -0.27298438801632       -1.72945044560473
H           -7.40548761477973        1.96872071370075       -1.62315822155748
C           -7.83959050406469        3.03182514212647        0.18168996133973
C           -6.93327097210043        4.03602611822152       -1.92570167389764
H           -7.37984921037378        3.76837582818828        0.83641994736615
H           -8.81304064133265        3.40586932914754       -0.12618224046076
H           -7.99523202637526        2.11328027073694        0.74100693653377
H           -6.32447563429234        3.87470100879223       -2.81307465721885
H           -7.93839213271134        4.29833468749570       -2.24597332205309
H           -6.51859897318532        4.87634648201472       -1.37388080552182
N           -6.99436121913707       -0.64585726426202        0.26178018681085
H           -8.08859484952788       -0.74780093412943        1.73662770899277
C           -7.79822879942183       -1.70003442805039       -0.31544582032594
H           -8.13782408425124       -1.43936962486922       -1.32633762691446
C           -7.04946842249034       -3.03529933472875       -0.38032419396515
C           -9.02724530626243       -1.88463371793549        0.58740601252818
H           -6.68046721194626       -3.30590424056534        0.60671031891173
H           -7.73039447563350       -3.80687601040865       -0.72818580902913
H           -6.21104264398755       -2.95877247582996       -1.06791905602462
O           -8.93794963505511       -1.24360874264244        1.74669977948474
O           -9.96550771138513       -2.56327940094534        0.27752768283773
