42
 energy: -62.486133492186 gnorm: 0.000483552911 xtb: 6.7.1 (edcfbbe)
N           -1.11273157367927       -1.26388813579880        0.31926498801287
H           -0.20648257922225       -1.43130097068264       -0.10093468711141
H           -1.41793037043743       -2.13714413373703        0.74110627000552
H           -2.02252283368099       -0.01597048502013        1.46400252592102
C           -2.08434146603965       -0.83878026248114       -0.68936108018034
H           -1.60450591193407       -0.06142952759454       -1.29725286760817
C           -2.58983329177802       -1.95238941070807       -1.60294857143307
C           -3.23762935512471       -0.16778491835979        0.04219593281446
H           -3.00619505397556       -2.76283530054651       -1.00772490056951
H           -3.37649267257638       -1.55954758165215       -2.23773061230474
H           -1.78074479070645       -2.34255257191045       -2.21704967661477
O           -2.94414216584258        0.26155129661527        1.28996983611247
N           -4.34323618160208       -0.04085644022071       -0.53636360467466
H           -6.77974286312156       -0.05068581749453        2.01195186922717
C           -5.45187329206846        0.63173201877394        0.09168144077635
H           -5.21782888318660        0.92629320509821        1.12799955813779
C           -5.79219922171283        1.87228361348092       -0.75167969963847
C           -6.63371146348149       -0.30930127498980        0.08215918093015
H           -4.91567766685481        2.52262089907689       -0.77635906426946
H           -5.98032227409856        1.50796643831597       -1.76159999935657
C           -7.00746461919544        2.65813253434435       -0.24899482614628
O           -7.24936201595165       -0.51487657623432        1.30779042310991
H           -7.83411858239648        1.96023459856386       -0.07471349293921
C           -6.70510088454531        3.40412931297885        1.04971211721933
C           -7.45051696402443        3.64911295993958       -1.32332395176404
H           -5.90329139427277        4.12253207738723        0.89197800467042
H           -7.58654779593403        3.94412704756407        1.38794004992886
H           -6.40130868865796        2.72672987008116        1.84459073398604
H           -7.72482748771430        3.12399464123549       -2.23447141594006
H           -8.31227726416471        4.21863052324977       -0.98351300047922
H           -6.64626632917345        4.34484444830351       -1.55317026634026
N           -6.99399699497266       -0.84103598285270       -0.98682638704135
H           -8.94508554635035       -0.49691771280574        0.66841838474630
C           -8.07424476941372       -1.76927847195562       -1.18720351319775
H           -7.97067095061111       -2.11488692675295       -2.22222110752824
C           -8.05372838047799       -2.98368233773338       -0.24845812758924
C           -9.45127235292621       -1.09408235409335       -1.08762467515691
H           -8.21512243838650       -2.69150100691878        0.78695862240120
H           -8.83185123737846       -3.68314612532503       -0.54376112702308
H           -7.08707833543036       -3.47673938500451       -0.32268897869369
O           -9.69775802310940       -0.44320620078177        0.04963693321401
O          -10.26615627769226       -1.16312166963061       -1.96244618281920
