42
 energy: -62.486133488187 gnorm: 0.000484302180 xtb: 6.7.1 (edcfbbe)
N           -2.89191882545290       -1.32549248269955        1.10281460309500
H           -2.12236875173422       -1.76483743681705        0.61162874750148
H           -3.46945213511677       -2.06394516243938        1.49872815586229
H           -3.16563550462779        0.02107178746447        2.29986808903454
C           -3.69405237318851       -0.50048441559011        0.19705677297415
H           -2.99597889131135        0.20224167461039       -0.28806253102009
C           -4.36454699059884       -1.32993741250390       -0.89564483919935
C           -4.54607446811290        0.43169035354757        1.10033090819815
H           -4.94612636830146       -2.13570616614911       -0.45746864629087
H           -5.01114032097490       -0.73310734178104       -1.52954981358312
H           -3.59103053628084       -1.77453886398707       -1.52325864647342
O           -3.92442257728812        0.64712621375845        2.26497764525831
N           -5.55535971174136        1.15268842351221        0.89462598638075
H           -8.28212870399995        0.45015156588688       -1.70348971355488
C           -6.58908809838850        1.11877246067847       -0.08524810607711
H           -7.39797064843435        1.74221815106288        0.33273107127796
C           -6.13735029248538        1.76398369876655       -1.42057095227268
C           -7.21508150970522       -0.25661711900706       -0.26446595132226
H           -5.08463839280302        1.52403265092137       -1.58156930781851
H           -6.69737008872685        1.35465147528559       -2.26760405716115
C           -6.29558880114657        3.28941115509190       -1.42111418745343
O           -8.14694198065324       -0.38406618441943       -1.23516501975166
H           -7.31968897359994        3.53371591534738       -1.11345662653494
C           -5.32463711248545        3.93472372981300       -0.43706850729389
C           -6.07324592639023        3.83926004078502       -2.82933295028996
H           -4.30023774667343        3.79781777939742       -0.77732971111928
H           -5.51911984415586        5.00126115871528       -0.35569635554876
H           -5.41965892707556        3.48111115603347        0.54578363344674
H           -6.79917022395027        3.43095266499939       -3.53035757319676
H           -6.17154655703686        4.92179539547772       -2.83021663331566
H           -5.07552147772457        3.58710371005132       -3.18238693543507
N           -6.95924382785088       -1.14247752185754        0.58716617719543
H           -5.87469958168183       -1.58020982233664        1.97957159434519
C           -7.50370234346093       -2.47408273974038        0.65873672460617
H           -8.42677902131936       -2.42987978887512        1.25561206947868
C           -7.79895366328653       -3.19518296403098       -0.65540097681636
C           -6.49750964586816       -3.28322122990873        1.50308810337206
H           -6.94491264285643       -3.12672184615516       -1.32570510842357
H           -7.98654294227819       -4.24322470370458       -0.43702131882872
H           -8.66471357749339       -2.76473582122822       -1.14838824949190
O           -5.65787318434344       -2.51929067326759        2.19835045749420
O           -6.46396934960559       -4.48108888468378        1.53068337752563
