42
 energy: -62.486133507270 gnorm: 0.000480901949 xtb: 6.7.1 (edcfbbe)
N           -0.91527877491048       -1.12332928040847        0.51693066679827
H           -0.70314698159595       -0.54551298445934        1.32338570040425
H           -0.04044010241541       -1.37034297911334        0.07001687556421
H           -2.46468352311129       -2.06170741217204        0.99786629710915
C           -1.79603571749563       -0.41752349645004       -0.41359058301621
H           -1.58527343139779        0.65627894638080       -0.49782076927831
C           -1.70738904737957       -1.05510325714730       -1.80044665768102
C           -3.22157059301101       -0.58847737568394        0.09594687009809
H           -1.92247348262537       -2.12002460127527       -1.73953205476523
H           -2.42858635363140       -0.58578223034372       -2.46254973381091
H           -0.71030199637719       -0.92268387631621       -2.21502885800047
O           -3.37087252784551       -1.69983229286004        0.87271555628806
N           -4.07450377016036        0.26278261325599       -0.21895455311949
H           -5.02562645915410       -1.99701845479153        0.68039150541077
C           -5.48466104873519        0.40859000312756        0.03414605938432
H           -5.56860976819114        0.78756775826138        1.06764238688860
C           -5.99234404287926        1.50504889540052       -0.91965688044607
C           -6.39537689439665       -0.81237773821045        0.00793340086870
H           -5.12857339933379        2.10798132022657       -1.20277517072566
H           -6.37910713046741        1.02812224176845       -1.82025980583944
C           -7.06653851314338        2.41480836675807       -0.31129610885119
O           -5.96545196916175       -2.00751035090933        0.42348339069112
H           -7.78610543816730        1.79099656917912        0.22693557817244
C           -6.45104313838718        3.41262962821045        0.66863310508788
C           -7.80043615758701        3.17037993866988       -1.41774912464657
H           -5.76750063938418        4.07972283663173        0.14758281930943
H           -7.22780026774437        4.01421500430561        1.13449641408901
H           -5.89836174314760        2.90774653041131        1.45676100564352
H           -8.28626223592671        2.48464280450357       -2.10708095252969
H           -8.56120669296848        3.82045155114902       -0.99233026052411
H           -7.10145057910166        3.78600614448475       -1.98042559315199
N           -7.59313924954904       -0.62107661071749       -0.34790554637505
H           -8.77570849517739        0.33694708079154       -1.32221957238773
C           -8.56056391860030       -1.69386349271502       -0.35756663806858
H           -8.12224491913202       -2.64831413339467       -0.67635011924681
C           -9.19831791666433       -1.87877991254995        1.02424739003552
C           -9.66453123328062       -1.29880557290001       -1.34921835788591
H           -9.59951768261114       -0.93072866928061        1.37747596353932
H          -10.00474899959769       -2.60330474319154        0.95417916763350
H           -8.45285377625761       -2.23434332046222        1.73132061175803
O           -9.58323763294008       -0.03642193377419       -1.75116446652020
O          -10.52431501210926       -2.05407942706505       -1.70923382452521
