42
 energy: -62.486133511810 gnorm: 0.000480392287 xtb: 6.7.1 (edcfbbe)
N           -2.56647331872939       -1.89911167467001        1.49116566732577
H           -2.88476599759377       -1.83722202153694        2.45271437521630
H           -1.58248784475835       -2.13930115746808        1.49945581122358
H           -4.14981027442705       -2.44039863575341        0.63879584661685
C           -2.79426627320120       -0.64052104809941        0.78555172706982
H           -2.54687462027646        0.25208504319645        1.37592915888861
C           -1.98308974992583       -0.62192008637324       -0.50975410512736
C           -4.28179133159820       -0.58691187653262        0.43457740842355
H           -2.22622835878315       -1.49179349033668       -1.11561603230286
H           -2.21715025288834        0.27768879752182       -1.07039555622905
H           -0.91711316010702       -0.63384577073656       -0.29179035702475
O           -4.84285049444833       -1.80476050581038        0.34715385341572
N           -4.76726839317350        0.54055744703074        0.19534214095480
H           -8.30338228835994        1.36308375703323       -1.02980483052342
C           -6.08627016363460        0.98752948288295       -0.14362179239284
H           -6.28663677847236        1.80160888040421        0.57183971282103
C           -5.99708161282907        1.59725418847668       -1.56991285624567
C           -7.28369791468482        0.05963595052359       -0.03164239311556
H           -4.95279215579484        1.53823868765171       -1.88124234418514
H           -6.56965098757981        0.98008527554817       -2.26756946688064
C           -6.44347727157822        3.06334396341666       -1.66599243608098
O           -8.43185040987948        0.50592633145393       -0.60599571536064
H           -7.37826904553094        3.20842841818463       -1.10691242156755
C           -5.38460430090657        3.98168707081163       -1.06075286864844
C           -6.69689323701662        3.43830973531748       -3.12532676149057
H           -4.47196305499847        3.93859769598399       -1.65058997791915
H           -5.73531163450948        5.01108717391063       -1.04346678378256
H           -5.14460495205713        3.67932077242628       -0.04484830588055
H           -7.49344619357847        2.83298602691397       -3.55408811645211
H           -6.98338147939452        4.48429324424105       -3.20504547617860
H           -5.79582363438917        3.28452483869745       -3.71480831984720
N           -7.23844431846988       -1.00450094438991        0.62894542339707
H           -6.27365272424770       -2.31276606216515        1.55394783926916
C           -8.38336376456821       -1.86110762299505        0.81418631897247
H           -9.28301258606515       -1.29487299229314        1.08588422546224
C           -8.67570433825374       -2.69164903150590       -0.44139085480450
C           -8.03152929885081       -2.83183796257958        1.94946826345577
H           -7.77798340325628       -3.22584944621411       -0.74671854149509
H           -9.46467094501068       -3.40724134249256       -0.22667844844298
H           -8.99211896633848       -2.03810619812575       -1.25055212480166
O           -6.72890164922768       -2.93934742719484        2.16962552997862
O           -8.85750206499401       -3.45523293258052        2.55886842456510
