42
 energy: -62.486133511306 gnorm: 0.000480209972 xtb: 6.7.1 (edcfbbe)
N           -1.88919257456246       -1.97998076017630       -1.43051749444870
H           -0.92317938510469       -2.27991512124738       -1.38056152757103
H           -2.05431146761907       -1.63026281393050       -2.37049265522601
H           -3.66079149784625       -2.55469842495083       -1.03614911859955
C           -2.16092662855344       -0.92388839645638       -0.45731133181792
H           -1.75412391828527       -1.25689551801082        0.50585804864493
C           -1.56062577567670        0.43355332448674       -0.81504317148963
C           -3.68315215334612       -0.83837076636163       -0.29029765292421
H           -1.93267248731945        0.76151536100839       -1.78355707594628
H           -1.85635689103086        1.16337147763179       -0.06986789150791
H           -0.47447872225957        0.37355339810269       -0.85355181809890
O           -4.32801991422395       -1.95161681044549       -0.64718077398728
N           -4.13927331885021        0.21506357672565        0.21463366783619
H           -7.25925932954267        0.63572051856717        2.08002733731308
C           -5.48047993578106        0.66779170904471        0.43367983098212
H           -5.43019891678792        1.19745102573508        1.39702866279684
C           -5.78495097643988        1.69201936708094       -0.68537220194288
C           -6.63018987773624       -0.31534517532599        0.48408118746896
H           -4.92036773904442        2.35246969238809       -0.77223696736597
H           -5.87429282943486        1.12172637107664       -1.61152256547565
C           -7.05281672629399        2.52619100761404       -0.47433851257658
O           -7.53585050043556       -0.10028088291557        1.52138396663692
H           -7.89015049849506        1.85969588901784       -0.24023210015266
C           -6.88631862042239        3.53795641906822        0.65867096315220
C           -7.39462581316322        3.26006728197524       -1.77006818634328
H           -6.07842344035782        4.22886545642152        0.42733986632885
H           -7.80104368233693        4.11213437739732        0.78776408517857
H           -6.65607072184002        3.05687432894992        1.60696450459340
H           -7.57211071933934        2.55121436744420       -2.57481041651083
H           -8.29137323914628        3.86146701062200       -1.64103279611096
H           -6.57788861872272        3.91725846242974       -2.06114985594835
N           -6.73939095376685       -1.23164256106458       -0.35140135495786
H           -9.02352338077635       -0.46144166179546        0.56488763876107
C           -7.75428350058412       -2.24583100481632       -0.43055747850405
H           -7.40538009955945       -2.94104669332573       -1.20258949292181
C           -7.98204090261410       -3.01959604722239        0.87511568181617
C           -9.09774966428004       -1.68248028444447       -0.91565338681316
H           -8.37955425772803       -2.37687663603848        1.65780123371965
H           -8.68056343065260       -3.83355037176897        0.69705645613182
H           -7.03430755315855       -3.43192790301408        1.21357127507605
O           -9.60480723777689       -0.68727368959782       -0.18680522061910
O           -9.67107340729258       -2.11506494889508       -1.87462842094355
