42
 energy: -62.486133505468 gnorm: 0.000480508452 xtb: 6.7.1 (edcfbbe)
N           -0.92718070411319       -0.67466844140060       -0.03932156457517
H           -0.08642526189759       -0.85779004159687       -0.57336697051581
H           -0.97477602682496       -1.36934915901535        0.70121927944640
H           -1.86698320208512        0.79129868567577        0.79232514478259
C           -2.11620623928256       -0.77567132623146       -0.88720687262196
H           -1.90833211901398       -0.21654546724844       -1.80825232029966
C           -2.53238954101108       -2.19944259034194       -1.24615043124740
C           -3.24294303619315       -0.03907369287083       -0.17935308874896
H           -2.67321971533571       -2.78669807685980       -0.34069145030603
H           -3.47592408159458       -2.16581234261108       -1.78000501042720
H           -1.77522035833985       -2.67714891153109       -1.86454948488179
O           -2.84035028610818        0.86976276491720        0.73583363472017
N           -4.43461180044841       -0.28927636143320       -0.48157787267200
H           -7.18959602645049        0.16353031007697        1.87752795757473
C           -5.51922725533037        0.42724107466855        0.13701083962417
H           -5.28584411267916        0.66248654912302        1.18904799519206
C           -5.76572840655028        1.73665746516637       -0.63977692856600
C           -6.75934707116475       -0.42884558582020        0.06555028173741
H           -4.84034119021195        2.31607558049382       -0.61840804575854
H           -5.96813726380167        1.44867660602211       -1.67249648299569
C           -6.91731250799238        2.59581036903070       -0.10799901755888
O           -7.57556847767177       -0.39152394899184        1.18901003093386
H           -7.81328569393429        1.97409939675855       -0.00249329794077
C           -6.57983575190138        3.22422408943192        1.24366041642105
C           -7.23376004569176        3.69537189577392       -1.12035802982552
H           -5.70802145918536        3.86814418092243        1.14889820054481
H           -7.41347255904777        3.82600008364474        1.59877014262236
H           -6.36082954319551        2.47435179190327        2.00119579416563
H           -7.52892595899667        3.26265523244087       -2.07281005925513
H           -8.04813657536077        4.32020513037445       -0.76126610794728
H           -6.36150895339977        4.32525179546807       -1.28185449418354
N           -7.00664880461536       -1.08723056579859       -0.96342512899724
H           -9.14576599292602       -0.35715337760200        0.29136615647287
C           -8.13259008436216       -1.94922526799188       -1.20678937629798
H           -7.91032585098369       -2.45638270196537       -2.15275644019615
C           -8.37431940324410       -3.00318731707273       -0.11719696054631
C           -9.43378574240837       -1.16239995388478       -1.42878398022714
H           -8.65125037933391       -2.54355779964499        0.82912227321535
H           -9.17068196379543       -3.67356774899316       -0.43094364950941
H           -7.46376519728372       -3.57911643013299        0.03125693946950
O           -9.78788161139311       -0.33668867407055       -0.44346015197206
O          -10.10573498776524       -1.29351333135950       -2.41156682373941
