42
 energy: -62.486133505620 gnorm: 0.000480465744 xtb: 6.7.1 (edcfbbe)
N           -2.29235057368105       -0.68245919571748       -2.00296584548475
H           -2.46833303876918        0.19368261827014       -2.48440213708253
H           -2.29181175633720       -1.42165290009596       -2.69689119272606
H           -1.26774099558090       -0.18077662573364       -0.42154842201934
C           -3.32018781054492       -0.93017860896807       -0.98874238031451
H           -4.33966729929384       -0.79131410199611       -1.37316844125626
C           -3.14685393470045       -2.36029290615217       -0.47235744692331
C           -3.03441066941083        0.08196546157893        0.13143954812037
H           -2.16231458138585       -2.48064466172761       -0.02431171714661
H           -3.90401553674944       -2.60444092776543        0.26610115284530
H           -3.24038918493953       -3.06294754764572       -1.29840698126903
O           -1.72218123266175        0.25120202803237        0.33066918309572
N           -3.80581935066945        0.80086974797541        0.81872381926782
H           -5.05775612455735       -1.28179216847379        2.00048506830481
C           -5.24195317801748        0.81685097086893        0.89190887726304
H           -5.46715555976340        0.98878562066890        1.95563388325484
C           -5.74855005660902        2.02094473405292        0.08112013393164
C           -5.91988520928057       -0.47166240561900        0.48886644846769
H           -5.09335379068960        2.86349353542528        0.30736500763254
H           -5.63574686369154        1.78121786494635       -0.97739698348789
C           -7.20298155977743        2.40682573526545        0.37261978412907
O           -5.66801853675263       -1.53301540433194        1.29410846976677
H           -7.80873443848033        1.49581065700499        0.38925931695046
C           -7.33422922971748        3.11072478044156        1.72136070697132
C           -7.72488172135933        3.31659674011566       -0.73836059319212
H           -6.74357600740193        4.02411999934605        1.72994845332353
H           -8.37274140825350        3.37278246023392        1.90998845323920
H           -6.99489644820569        2.47642695856434        2.53618854214541
H           -7.69097027284299        2.81416050045699       -1.70225817491991
H           -8.75446150393138        3.60499702674506       -0.54053061113403
H           -7.12272488724761        4.22040411870115       -0.80018251003602
N           -6.67487072501389       -0.53266098227070       -0.51466533836255
H           -7.26266436516808        0.18838142655304       -2.10485209954938
C           -7.30164656691449       -1.75913741149982       -0.94693777709890
H           -6.68748135660445       -2.64432602964201       -0.74167361207951
C           -8.67333700549707       -1.93429819862465       -0.28563336613750
C           -7.51862963461430       -1.62775211401311       -2.46130834259906
H           -9.29136504213370       -1.05733711027221       -0.46860384061222
H           -9.16506995533009       -2.80977888539091       -0.70015916694456
H           -8.55097568360610       -2.06376195471670        0.78709139288612
O           -7.49009748187939       -0.36781272348978       -2.88480870717551
O           -7.71135906504069       -2.56420389646573       -3.18375451917488
