42
 energy: -62.486123766404 gnorm: 0.000704875905 xtb: 6.7.1 (edcfbbe)
N           -1.85133138619555       -0.25630905683394        1.15383218768116
H           -1.21873527960033       -0.79132312792634        1.73950037215496
H           -2.49788275328951        0.24628283793956        1.75295643514425
H           -3.61819362362866       -1.31318795188899       -1.90351830052301
C           -2.61478835483011       -1.14451029815630        0.29769701819679
H           -1.97055198299076       -1.41328111526546       -0.55430942906073
C           -3.08662085939080       -2.43575968476758        0.99249174249029
C           -3.84165808969858       -0.41779638184462       -0.20969748971356
H           -3.72443929803232       -2.17854969183104        1.83497577145048
H           -3.65129573994509       -3.06886883129094        0.31246822046396
H           -2.22645506653674       -2.99583070148762        1.35451988011983
O           -4.23506072782749       -0.70457391634503       -1.47629402898010
N           -4.46216971498132        0.31543988673803        0.59627575974950
H           -7.87423257729609        1.72771781248173        1.10557051666065
C           -5.64080306979284        1.09187210191536        0.31375803416502
H           -5.66672220728009        1.85022000290907        1.10984894734535
C           -5.62904799589384        1.79100362149088       -1.06000153921349
C           -6.86976681894255        0.21847037426467        0.45322671108985
H           -4.65847601567983        2.28153851302280       -1.16616556398228
H           -5.70162017800362        1.02164156499580       -1.82902152534398
C           -6.74197814202288        2.82189962939771       -1.27961633848999
O           -8.00883869938816        0.79481925078084        0.89752729434387
H           -7.71442431448291        2.34961821735102       -1.09947673691339
C           -6.59449768909135        4.03876747562895       -0.36653174596783
C           -6.71394308474362        3.27678219815337       -2.73896755179886
H           -5.63913179558094        4.52677049155953       -0.54689397665649
H           -7.38698635757657        4.75662793021096       -0.56707171088346
H           -6.64212767649706        3.77479322878725        0.68822841231026
H           -6.85853747147389        2.43196136565264       -3.40802471196860
H           -7.50211337646843        4.00200780814475       -2.92771332892361
H           -5.75792638194028        3.74013118793629       -2.97249227594541
N           -6.76707388747560       -1.00301552675132        0.18211815416151
H           -5.79001177789296       -2.23638251983039       -0.64149476390951
C           -7.83421148737094       -1.96699685792557        0.25687255059664
H           -8.24947272464377       -2.02735278712642        1.26997838190983
C           -8.97064246569648       -1.68290356249176       -0.73230392768085
C           -7.20602092648382       -3.32216558175680       -0.11233900364255
H           -8.56882933461669       -1.57866249410912       -1.73865343278577
H           -9.67523495871263       -2.50968130480148       -0.71497796301588
H           -9.48350287698201       -0.76499989021639       -0.45756303648668
O           -6.00434436023413       -3.20421900615906       -0.66691396333543
O           -7.75648968003259       -4.37402091641488        0.05713090231426
