42
 energy: -62.486133506096 gnorm: 0.000479883246 xtb: 6.7.1 (edcfbbe)
N           -1.21269362061537       -1.00856579767616        0.46052521162985
H           -0.73424201958342       -0.11358953728813        0.47258357752830
H           -0.52161932741110       -1.72730454625801        0.28014918160067
H           -2.69291435454591       -0.75256726464019        1.66673739306226
C           -2.25461733581595       -1.02267848984932       -0.56664212235728
H           -1.96824558692472       -0.52496537263082       -1.50237038621178
C           -2.66588048209771       -2.46403181813229       -0.87105544230131
C           -3.45466515256367       -0.30009807788998        0.01031704866279
H           -2.95448810027346       -2.97433132245916        0.04581327991329
H           -3.50771170538868       -2.46242706710378       -1.55699312902712
H           -1.83974474682559       -3.00510576062553       -1.32722952786728
O           -3.54194196558263       -0.36580213908863        1.36665835565115
N           -4.28479072227268        0.25918515318195       -0.74422903779578
H           -5.53539713947762       -0.57711639201734        1.68114573279097
C           -5.45211060869045        0.92388846671764       -0.19146516246662
H           -5.20811887416122        1.39384224006361        0.77332232811739
C           -5.92597477725230        1.96706393575677       -1.20206485324690
C           -6.48855047574790       -0.15125619678219        0.04225677718898
H           -5.08538341397413        2.62551441736160       -1.42771421415422
H           -6.19326309794024        1.42650951065547       -2.10854697305271
C           -7.12424945843060        2.79601231714844       -0.73135179275886
O           -6.37427683943763       -0.80658337479952        1.25124374838827
H           -7.91789241952522        2.10974023948027       -0.42058941561585
C           -6.76687873012742        3.70623030588698        0.44237794521823
C           -7.64505488436830        3.63436008649177       -1.89687273326714
H           -5.93853807650052        4.36048903663919        0.17683818604449
H           -7.61992082704344        4.32596812467591        0.70886782679829
H           -6.48613475004320        3.13317672449403        1.32260725176687
H           -7.94173237613406        2.99293592839548       -2.72221346483150
H           -8.50849668335362        4.21980102605113       -1.59009134631674
H           -6.87387754171624        4.31688943358754       -2.24841316094525
N           -7.30815606656215       -0.44342857823254       -0.85392825884844
H           -8.15312430150634       -0.96533980451888        1.53267056604835
C           -8.29449151810707       -1.49089413419768       -0.82510878247400
H           -8.72130693609257       -1.51333198156730       -1.83455568342715
C           -7.73538676696869       -2.88002744698352       -0.48601810268001
C           -9.45627466889331       -1.18471963271535        0.13324703624414
H           -7.35815447238797       -2.91985942664064        0.53362731816725
H           -8.52021895265867       -3.62334595282904       -0.60196087230408
H           -6.92070223562920       -3.11532515370891       -1.16745063778737
O           -9.11866876235181       -0.93040880198199        1.39666989092076
O          -10.60030048825704       -1.20052867571999       -0.22185843490101
