42
 energy: -62.486133518880 gnorm: 0.000479091360 xtb: 6.7.1 (edcfbbe)
N           -1.36739149086207        0.26277194539338       -1.01872473819298
H           -0.38717065026086        0.00056477662725       -1.01607209233950
H           -1.57583962859532        0.72268713407472       -0.13885451454736
H           -4.07800871339021       -0.92437030106849       -2.76599222202708
C           -2.20372563044544       -0.91804098452708       -1.14945300319246
H           -2.08144953000532       -1.29032957824892       -2.17749120005067
C           -1.85818431966490       -2.04927880301966       -0.16673314365700
C           -3.64107728661575       -0.49237347573013       -0.93427000727066
H           -1.97832332277037       -1.69110044692557        0.85292803659161
H           -2.51196840656283       -2.90486912086999       -0.32081895743962
H           -0.82867680697418       -2.36945906544589       -0.31388373806929
O           -4.50894130161349       -0.62150438352800       -1.95701001527675
N           -3.96361142971783       -0.05416167150559        0.20269646516795
H           -5.03437017774148       -1.93294265623203        1.03135532528702
C           -5.32725163764003        0.36409398492404        0.48738128718056
H           -5.35493775651536        0.52358003234764        1.57481024768057
C           -5.68601733257260        1.66923498683976       -0.23153113943234
C           -6.27762687449523       -0.76746557327882        0.16263422214335
H           -4.81807455210724        2.33049014827566       -0.17822576286576
H           -5.86823203164511        1.43357948056427       -1.28008788094624
C           -6.90693041905027        2.38096891146877        0.36277233726883
O           -5.90886256339426       -1.98589552358585        0.62148370298830
H           -7.67374478257837        1.63085266933521        0.57545670658923
C           -6.55132491493544        3.10476035654107        1.66000075771326
C           -7.46684548408467        3.37927125285731       -0.64897112014839
H           -5.80637611862907        3.87523487080435        1.47144482272642
H           -7.43422470043323        3.57950113873295        2.08167820835824
H           -6.15229064803887        2.41764037127065        2.40199353003728
H           -7.78241030300697        2.87673436402869       -1.55996811621256
H           -8.32589328461617        3.89970687360486       -0.23222814720178
H           -6.71188164076740        4.11896477816124       -0.90750924587084
N           -7.33482872495833       -0.56287901798303       -0.48353887326864
H           -8.18958351484806        0.46335436394093       -1.70133639232019
C           -8.24718068234087       -1.62531062718850       -0.83159705742773
H           -7.72675425296479       -2.56501264941001       -1.05560260554103
C           -9.26228532877904       -1.87284147813649        0.28939399435767
C           -9.01022681195100       -1.16542660424267       -2.08361994937016
H           -9.76241839036416       -0.94229403722741        0.55051212604685
H          -10.00261592223086       -2.59238078767508       -0.04870391955155
H           -8.75507990589702       -2.26170619526308        1.16911779001581
O           -8.83299899802248        0.11901248108782       -2.36628331714783
O           -9.71055498677040       -1.89538750737992       -2.72821718396707
