42
 energy: -62.486133514728 gnorm: 0.000479195449 xtb: 6.7.1 (edcfbbe)
N           -1.43358543243647       -1.62975350182335        0.93906328602967
H           -1.18771501536135       -1.06241092906454        1.74413264596393
H           -0.60281862984933       -2.12971515390858        0.64383989320661
H           -3.29858749839285       -1.97055900202921        1.33313299671185
C           -1.95256377640516       -0.79634924506429       -0.14281678495704
H           -1.41899755919433        0.15607500488210       -0.26793851877001
C           -1.90495879933372       -1.56817101424930       -1.46329796192450
C           -3.40424888329923       -0.48801772503002        0.18573904852601
H           -2.45662211929153       -2.50221332892699       -1.37484244237128
H           -2.33878507830462       -0.96486162267030       -2.25599974974292
H           -0.87499932338428       -1.79768538451489       -1.72828414975875
O           -3.99002477008832       -1.34249419801162        1.03954218477425
N           -3.96097449413427        0.50701244839249       -0.35178218999207
H           -4.91462069025463       -1.13393371845629       -1.51410607540041
C           -5.36187186329556        0.79360116541008       -0.12042624435402
H           -5.51008979189277        1.09549019552105        0.92193949371281
C           -5.71977532524832        1.96074982749512       -1.06086194502468
C           -6.26252777753290       -0.39438084790894       -0.38648597863372
H           -4.98278621220686        2.74441025661741       -0.87739158058738
H           -5.57992456402199        1.61622120421171       -2.08849016596869
C           -7.12928683690473        2.53616151825722       -0.91119041875702
O           -5.80692692565250       -1.35685660224326       -1.21187741759382
H           -7.85542218250939        1.73534288738917       -1.07773193369581
C           -7.36158534863612        3.12416016695025        0.47802773310702
C           -7.34811781483270        3.61182945966587       -1.97463208529177
H           -6.63389924648082        3.90643710185814        0.68501968712585
H           -8.35726963976080        3.55642703754979        0.53822059699643
H           -7.27903253958553        2.36037415302662        1.24622833790623
H           -7.20911608909617        3.20354962137400       -2.97306901968961
H           -8.35722324844050        4.01027586232294       -1.90656217215780
H           -6.64508997795378        4.43105290341183       -1.83774220578275
N           -7.44431220283639       -0.36701051778239        0.04996074970028
H           -8.84263241677200        0.55038714846548        0.78432172929138
C           -8.38445711054176       -1.42412685926909       -0.24633732545387
H           -8.34039996242437       -1.72875305413873       -1.30011103328204
C           -8.14009581655417       -2.65474685749912        0.63432464133422
C           -9.78929906527789       -0.88382237239768        0.05513074648040
H           -8.14322220887841       -2.36543173303011        1.68329594415554
H           -8.92732272679038       -3.38315068855164        0.46158261541242
H           -7.17618088530269       -3.09532030857944        0.39274516852975
O           -9.78594414972260        0.28020967053085        0.69360156601903
O          -10.79287725702206       -1.47202879918544       -0.23893652161419
