42
 energy: -62.486133508079 gnorm: 0.000480729181 xtb: 6.7.1 (edcfbbe)
N           -1.93677217647131       -1.99781084543575       -1.24492041124940
H           -0.97112484259909       -2.30173225478616       -1.26736349965245
H           -2.23004098400231       -1.83633873734628       -2.20477189983131
H           -3.64489991508180       -2.47176980542647       -0.53056659611811
C           -2.08348479069580       -0.76901817154053       -0.46802287104351
H           -1.53465291242076       -0.90964363168624        0.47210822796338
C           -1.57499701951288        0.49099249802184       -1.16502188175780
C           -3.55961074086901       -0.64151251377229       -0.10544029888787
H           -2.09254318405252        0.62722315118565       -2.11238371604882
H           -1.77511524631770        1.35380351353197       -0.53932220894040
H           -0.50544499748152        0.41779362223080       -1.35181256031427
O           -4.25206297123361       -1.79042822899684       -0.17410997540391
N           -3.99981234007062        0.47671570082329        0.25880865618794
H           -5.47387677759221       -0.77298485921346        2.45628017032184
C           -5.37919005632090        0.76783460301366        0.58550779531469
H           -5.34209490533049        1.28872837478000        1.55379229507708
C           -5.89788393156662        1.74126219329051       -0.48273633348232
C           -6.25756737876407       -0.45451249005819        0.72981601007248
H           -5.16639443892308        2.54653722228525       -0.56901218622061
H           -5.92398753046696        1.20548898090707       -1.43234873389960
C           -7.28242353657295        2.32842835557361       -0.19412972365238
O           -6.18230581641067       -1.12361923266160        1.90318155688524
H           -7.97840599332539        1.50361854822841       -0.01576465223291
C           -7.27225784192531        3.23845345956262        1.03224171457822
C           -7.76073870590298        3.10975762841654       -1.41691418836016
H           -6.52908242359933        4.02474953522589        0.91676724607483
H           -8.24635265953887        3.70497032446737        1.16037683022259
H           -7.04914429571684        2.68172986141045        1.93887039366077
H           -7.80627715719257        2.46575768227919       -2.29159406828722
H           -8.75262290440295        3.52004643819747       -1.24311317183191
H           -7.08215875362353        3.93310942586004       -1.62992444295452
N           -7.00831782611927       -0.81120835291018       -0.21472456638721
H           -7.28763440441297       -0.80831695449625       -1.97726748983432
C           -7.81236510611169       -2.00736431372521       -0.14900441637306
H           -7.30207615863868       -2.81674592311571        0.38777190508104
C           -9.16336472032632       -1.73494320244303        0.52060578281425
C           -8.06634169467882       -2.45122437693499       -1.59728202246405
H           -9.66676689582058       -0.90950494360829        0.02063985485949
H           -9.78438941153480       -2.62357407248448        0.45208162083905
H           -9.01307100348973       -1.47794185743748        1.56640519728147
O           -7.68981486145206       -1.54807728034681       -2.49523178995699
O           -8.56871846877690       -3.50183395187015       -1.88556677658995
