42
 energy: -62.486133511477 gnorm: 0.000480208514 xtb: 6.7.1 (edcfbbe)
N           -0.76693716763000       -0.21417299905517        0.19716275278770
H            0.14286721837262       -0.31635251668412       -0.23528492404693
H           -0.79756780596801       -0.83916668376834        0.99801091735285
H           -1.95908274150132        1.18514491064298        0.78439710479685
C           -1.83675338275474       -0.55100170515796       -0.74027433215467
H           -1.61002249598770       -0.04741689085345       -1.68906064097048
C           -2.01364086679475       -2.04691852364507       -0.99706541206578
C           -3.11123202925605        0.08668823308375       -0.20627932076940
H           -2.27258145858917       -2.56063274209928       -0.07298609096255
H           -2.80834940855856       -2.20456443010990       -1.71869574989620
H           -1.09208180376211       -2.47250557546410       -1.38918634790706
O           -2.92337717892196        1.11621378664006        0.62975860143391
N           -4.23307133010553       -0.34556729900446       -0.58004022060672
H           -5.09178032958147       -1.96577747890305       -0.57849933741946
C           -5.47027211664524        0.25107092197156       -0.10903090081205
H           -5.39879848819717        0.50085398358210        0.95858155733431
C           -5.70717118986321        1.54440736332970       -0.90894713075118
C           -6.53486189971344       -0.81915310031024       -0.27988235962777
H           -4.85252337791010        2.19170869892119       -0.69580973004179
H           -5.67511450169787        1.28674242511499       -1.97017456704210
C           -6.99347668629907        2.32392266055119       -0.62571273859869
O           -6.05736422841216       -2.06275838135356       -0.44164508972361
H           -7.83093913238885        1.77432137788345       -1.05915614109773
C           -7.24057491777451        2.51131298994419        0.86798536922653
C           -6.90883897773247        3.68381645593246       -1.31862973576076
H           -6.38288311834137        2.98787695504110        1.33885785843038
H           -8.11167336380719        3.14290842799040        1.02559720298355
H           -7.42065011979173        1.55520679676179        1.35187225365369
H           -6.71597293761276        3.56289163280071       -2.38201653781042
H           -7.84377053526537        4.22568516572569       -1.20057483650557
H           -6.10807537266314        4.28303676261065       -0.88948041096305
N           -7.76281695603850       -0.53328848436778       -0.32204995370571
H           -9.20639771019745        0.62178350776317       -0.12961288944993
C           -8.75342961398810       -1.57314643054824       -0.50857866902853
H           -8.50546879384480       -2.21560262439123       -1.36248347057437
C           -8.91385652015289       -2.45235137125096        0.73857676542299
C          -10.10038084094337       -0.88822013210046       -0.76686467190125
H           -9.13085871353979       -1.83160216379190        1.60616611820498
H           -9.73381453087589       -3.14832184689457        0.58519325005493
H           -7.99736810203131       -3.00792839645139        0.91858540074092
O          -10.12005040247549        0.39196902349180       -0.41278136020036
O          -11.05517733182301       -1.46313817808047       -1.21100657580817
