42
 energy: -62.486133507526 gnorm: 0.000480772197 xtb: 6.7.1 (edcfbbe)
N           -1.18630162860135       -1.39603855020953        0.28313566322586
H           -0.27037842023971       -1.55342995253163       -0.11974869480162
H           -1.53461842913799       -2.29516024893875        0.60573682238317
H           -2.10322571251284       -0.24474283358886        1.51452765786978
C           -2.10560907977645       -0.84232618496407       -0.71223254579952
H           -1.57908085023947       -0.02788433830448       -1.22565808366131
C           -2.61303232916839       -1.84580799914246       -1.74466298780310
C           -3.26439889639377       -0.20682643288872        0.04180772137365
H           -3.07645538768730       -2.69342283369831       -1.24373679352267
H           -3.36477612235614       -1.36790434925452       -2.36300864860885
H           -1.79535596174465       -2.20381701461005       -2.36694716790095
O           -3.00773837609887        0.08266248114377        1.33681269053799
N           -4.34025625441102        0.02061989985883       -0.56136991846544
H           -7.01394657895711        0.25905773236748        1.90916642089441
C           -5.45257988448981        0.65754625752993        0.09402571219820
H           -5.21482067852819        0.92707270617872        1.13650103973700
C           -5.81058105828772        1.91561394212995       -0.71898083125721
C           -6.62742415808279       -0.29096082887335        0.07502219445216
H           -4.93239284294222        2.56382087402565       -0.74426554446891
H           -6.00934850266766        1.57260718443704       -1.73462747755031
C           -7.01457960202820        2.70113231947748       -0.18915935325418
O           -7.39222491899934       -0.31658268712181        1.23302950588905
H           -7.84709343845867        2.01017414927133       -0.01640258704270
C           -6.68876810171450        3.42743863437858        1.11555261295769
C           -7.46369894663217        3.71220628915322       -1.24244795392738
H           -5.89721736747613        4.15542493010643        0.95024735962317
H           -7.56606925971646        3.95475652674364        1.48365131223334
H           -6.35754708371532        2.74183828226579        1.89276023648592
H           -7.75673221501758        3.20380372585493       -2.15729327952890
H           -8.31464212650107        4.28496450110019       -0.88126189379603
H           -6.65626721441050        4.40345563591353       -1.47422292088342
N           -6.86287202060925       -0.97488178514710       -0.94045225638764
H           -8.99600239363986       -0.41022387994319        0.40333748163371
C           -7.92434581977431       -1.92567389051588       -1.13541139648077
H           -7.70206750793642       -2.41520144135326       -2.09064468401776
C           -8.03336557270396       -2.99353738518568       -0.03777076093726
C           -9.29505728066537       -1.24994406220966       -1.29918966563660
H           -8.30967823442038       -2.55647571672303        0.91939533178685
H           -8.78326349993832       -3.72822331282307       -0.32053030499593
H           -7.07341615050950       -3.49262302120736        0.07402486833470
O           -9.66991082736075       -0.44882272076523       -0.30176361879885
O           -9.99905051252564       -1.44571070098590       -2.24801021171772
