42
 energy: -62.486133512001 gnorm: 0.000479526157 xtb: 6.7.1 (edcfbbe)
N           -1.22718969419684       -1.34035399064321        0.18868216868692
H           -0.32574708229397       -1.52009264429135       -0.23736294354440
H           -1.58393993483856       -2.22937569847540        0.52986671645250
H           -2.10830796007818       -0.14035582279118        1.42373958748759
C           -2.16234195270214       -0.78420702740001       -0.79094845229456
H           -1.64521992521080        0.04023013854082       -1.29909315757513
C           -2.67316054691155       -1.77864853910202       -1.82951096915797
C           -3.31507104079036       -0.16752975780641       -0.01401407805575
H           -3.13499682296828       -2.62973678109893       -1.33416231188648
H           -3.42945305597354       -1.29724506797787       -2.43910843707055
H           -1.85806192784035       -2.12942536564529       -2.45940924605507
O           -3.02022909685927        0.17190757691420        1.26078783111254
N           -4.42201130258808       -0.00194960226991       -0.57917464688041
H           -7.46300881028032        0.67992413248756        1.54266557077835
C           -5.53013861205813        0.61840681937916        0.09552492338611
H           -5.30320074789079        0.84437279383627        1.15096618141545
C           -5.83614143798049        1.91803633212750       -0.68174607493362
C           -6.71095034089162       -0.31891078723950        0.04098470336143
H           -4.91690294992713        2.50836963149861       -0.69268562880892
H           -6.04859403159725        1.61761686818182       -1.70885329189295
C           -6.97930389302662        2.79022943969012       -0.15305964576504
O           -7.71196834702196       -0.05329586471724        0.96662202069370
H           -7.89447638184968        2.19323061832028       -0.07687690147199
C           -6.65085784562984        3.39666525979398        1.21171685050920
C           -7.25238719250343        3.91126913320848       -1.15579873046112
H           -5.78058136976870        4.04452529562131        1.13045353302171
H           -7.48663890775350        3.99280803907756        1.57190587223162
H           -6.43029760654483        2.63852391257276        1.96138097312080
H           -7.53680121407045        3.49968158553057       -2.12081046890013
H           -8.06033811718156        4.54821375918064       -0.80333117706096
H           -6.36458464156459        4.52518420203961       -1.29117737011797
N           -6.73824691506325       -1.26516508654328       -0.77010689199047
H           -9.08474601342012       -0.39193500325219       -0.15893270739637
C           -7.76843453564767       -2.25577906105746       -0.93223326672664
H           -7.35926151095156       -2.98399713958815       -1.64206476983793
C           -8.16263349940454       -2.98375490715372        0.36127696635113
C           -9.04271457432773       -1.68711699114132       -1.57619416480172
H           -8.63343514127249       -2.30848951973277        1.07252121122628
H           -8.85528059957810       -3.78820372919044        0.12622428657130
H           -7.27291649187178       -3.40659275184128        0.82257987788701
O           -9.59230490821570       -0.64490569447126       -0.95314102913612
O           -9.53331427499763       -2.16415471155412       -2.55916783292974
