42
 energy: -62.486133512179 gnorm: 0.000480301718 xtb: 6.7.1 (edcfbbe)
N           -2.17940859447618       -1.41480707641420       -1.70370358507507
H           -2.25819877944217       -0.83005676399653       -2.52962669289706
H           -2.16076654282579       -2.38114716316608       -2.00929872801024
H           -1.27374097075947       -0.27422578185089       -0.50466734442273
C           -3.31474426801123       -1.17962886930667       -0.80574925904060
H           -4.27633790560509       -1.11613377952777       -1.32837421969881
C           -3.36378850475083       -2.29323528662992        0.24159746834402
C           -3.04262800595966        0.14263923934052       -0.08141365444986
H           -2.41748957536457       -2.34370402098709        0.77681188931670
H           -4.15885196082164       -2.10082483239299        0.95696248688608
H           -3.54518294199756       -3.25555487617139       -0.23459454034863
O           -1.73455768335687        0.41052080783924        0.02624854061736
N           -3.82725025914979        0.97418865121713        0.43764461746588
H           -6.66219181072879        0.04706369111262        2.21113099483704
C           -5.24363450355639        1.07753648421247        0.53877173776463
H           -5.40927007396892        1.45470041206013        1.56021217148899
C           -5.68696297337256        2.17198681437050       -0.46098963276029
C           -6.15812783638938       -0.11702978413610        0.33360106178284
H           -4.98862014941034        3.00429728446369       -0.36746067982806
H           -5.58389235132116        1.74483675724125       -1.45939615278040
C           -7.12259874903237        2.67033941913919       -0.26481818579283
O           -6.90598933322524       -0.47999022517711        1.43941756957379
H           -7.79586071103603        1.80908368590489       -0.18853396998181
C           -7.26198573483943        3.52148691848789        0.99568298069210
C           -7.54374969593217        3.48404935226557       -1.48699492067912
H           -6.60489306065816        4.38633851840542        0.93846466084037
H           -8.28563382615426        3.87397051525433        1.09876468907332
H           -7.00914688867871        2.96185103115330        1.89334186331890
H           -7.51262920024146        2.86976293846506       -2.38330580641556
H           -8.55785888242614        3.85642565513912       -1.36425921866709
H           -6.87805111253871        4.33322208359511       -1.62486715527265
N           -6.25233217374242       -0.68271840788285       -0.77885745490106
H           -8.49695381982608       -0.68948829189441        0.53897025253283
C           -7.13741334701219       -1.76297466822086       -1.13795951608912
H           -6.81197841060640       -2.08621168161479       -2.13394005652983
C           -7.13979384117090       -2.97270824289025       -0.19473840019478
C           -8.58071832703298       -1.25627418570107       -1.29721945297548
H           -7.48438176548102       -2.70716515273468        0.80196539077697
H           -7.79514256500922       -3.73939678432439       -0.60115206372997
H           -6.13388298994606       -3.37721103691549       -0.11541767264119
O           -9.11790565533000       -0.69757034034553       -0.21314896906429
O           -9.19164533990129       -1.36825281934008       -2.32014307155461
