42
 energy: -62.486133511677 gnorm: 0.000479995668 xtb: 6.7.1 (edcfbbe)
N           -0.87413522006879       -0.40688030823633       -0.81083339011605
H           -0.12901972025036       -1.04141508204411       -1.07072294333041
H           -0.55804849981919        0.12016460564123       -0.00110319271053
H           -2.03731319422968        0.86161712858824       -1.59772845205082
C           -2.09567031138778       -1.13881101248837       -0.47784849160396
H           -2.24376272842625       -1.89791065706786       -1.25694441446751
C           -2.07951785782082       -1.81821023597072        0.88862848851444
C           -3.25827347169950       -0.15325032190010       -0.59644352538711
H           -1.89828879175348       -1.08223087288877        1.66942878914930
H           -3.04363736858399       -2.27960205148327        1.07255233569029
H           -1.30046424838334       -2.57686196998027        0.92805795422610
O           -2.98726499471463        0.92140951696786       -1.36277982094417
N           -4.33754957156397       -0.43876835599316       -0.02537636343894
H           -5.43605062572301       -0.79879959351662       -2.10690982721537
C           -5.56191748927035        0.32235382394661        0.00438465954618
H           -5.81777307950891        0.40920695269596        1.06536418066292
C           -5.56420222081475        1.71840809485225       -0.64322868639097
C           -6.62737542939553       -0.53706447340067       -0.64305043973631
H           -4.75035421432136        2.30032022785634       -0.20762021827804
H           -5.36020685418491        1.61939348946803       -1.71237796421716
C           -6.88359235677055        2.47736674257820       -0.45803994294122
O           -6.33689416394467       -1.04373156985320       -1.85688372585122
H           -7.70746797887849        1.84471967586845       -0.80455764615450
C           -7.13378985551852        2.83944537804853        1.00370853755644
C           -6.85732881402584        3.74665893789200       -1.30890149839985
H           -6.31390117629772        3.44142683565328        1.39081049468625
H           -8.05235642747341        3.41416182995299        1.09251317973241
H           -7.23523255433494        1.95058951156211        1.62004085934211
H           -6.72103451679590        3.50607022817555       -2.36092017252369
H           -7.79060538187181        4.29404194601915       -1.20260406854572
H           -6.04114699086314        4.39510563528663       -0.99672886899423
N           -7.72591434543462       -0.71662251662469       -0.05649665202113
H           -8.95417529523511       -0.10703201887481        1.13924129304786
C           -8.79317960277477       -1.48626681620015       -0.65593491701514
H           -8.86461774835428       -1.32131316230781       -1.73864271453811
C           -8.61109330938553       -2.98512976323886       -0.39443403905603
C          -10.10545644206716       -1.03373934041533        0.00152485454966
H           -8.49806645319788       -3.16406134681567        0.67275745033041
H           -9.48373851778950       -3.52120024976785       -0.75674971385196
H           -7.72377143900813       -3.34474976258027       -0.90940509508986
O           -9.92614534215340       -0.24569559838466        1.05494159682611
O          -11.18585665598792       -1.37513925155597       -0.39175285849721
