42
 energy: -62.486133520626 gnorm: 0.000478845169 xtb: 6.7.1 (edcfbbe)
N           -1.00048867553062       -0.68449235414921        0.76328680429923
H           -0.03455031313752       -0.84952010899167        0.50721599821802
H           -1.29345173622194       -1.45134704148681        1.36259175103409
H           -2.15154444191084        0.76183540258657        1.40791133203700
C           -1.85451660958045       -0.62738630366860       -0.42159802461560
H           -1.37959064580673        0.06817231040586       -1.12694863749417
C           -2.07941722891907       -1.96969019998028       -1.11532188693703
C           -3.16205542347961        0.01566655945936        0.01371123893614
H           -2.60733056910853       -2.65235517329005       -0.45316055125490
H           -2.67539060122932       -1.82799501642797       -2.01061644305829
H           -1.12512122327269       -2.41262585731897       -1.39405784049674
O           -3.06346435762960        0.84103323644313        1.06497098028411
N           -4.22672710039604       -0.23210921769540       -0.61017172850120
H           -5.29380322976116       -1.29365938218567       -1.78375413865900
C           -5.48112859521660        0.38235361601599       -0.22657408964584
H           -5.52548493617816        0.58824325627480        0.84750903996832
C           -5.65849549904342        1.69713858183065       -1.01085674757987
C           -6.56026027054140       -0.60783581229540       -0.60393671905867
H           -4.83196357405345        2.35612877887696       -0.73485535151387
H           -5.56342505631673        1.46866039227390       -2.07600053864048
C           -6.98710891812761        2.41689883485492       -0.76434123968190
O           -6.24046298971236       -1.44920175202254       -1.59458468932897
H           -7.80642253479089        1.72503904127556       -0.98110360572415
C           -7.11682200641075        2.88795622165525        0.68155011951907
C           -7.09772564912093        3.60904045268687       -1.71410216136203
H           -6.29961802015089        3.56007569588508        0.93596917698961
H           -8.05504638181142        3.41980277475787        0.81791810157147
H           -7.10226035455782        2.04768133325659        1.36970098937722
H           -7.03865847433469        3.28584857621948       -2.75099861499619
H           -8.04666395114599        4.11913201240367       -1.56961649046225
H           -6.29446589311726        4.31949152464600       -1.52874282930650
N           -7.66401338648207       -0.59539873929467        0.00544272674232
H           -8.90058947208971        0.36014111271311        0.93352584415253
C           -8.73147141461391       -1.50539689202184       -0.34933421137864
H           -8.79524645781051       -1.66297524929125       -1.43369220247980
C           -8.55912169311262       -2.86438574225514        0.33741069428705
C          -10.04615611044537       -0.87766647222455        0.13607041071590
H           -8.44607149267191       -2.72597201140831        1.41081062213503
H           -9.43650049916828       -3.47606942168671        0.14690890400506
H           -7.67601822376206       -3.36580700334634       -0.05090146329983
O           -9.87265449112535        0.19873446391318        0.89373718429443
O          -11.12488275824175       -1.32921027033574       -0.13203672090789
