42
 energy: -62.486134079513 gnorm: 0.000281237083 xtb: 6.7.1 (edcfbbe)
N           -1.26122455612604       -1.12398619810022        0.44399465100694
H           -0.71783992764967       -0.26702046386625        0.46401723537733
H           -0.62410896065286       -1.89240009945050        0.26967379007364
H           -2.70960385193441       -0.75113127127857        1.64007614729944
C           -2.29158411636949       -1.05953125772925       -0.59300412619058
H           -1.96741632795383       -0.55583144430612       -1.51320131073427
C           -2.77643767465042       -2.46765265037879       -0.94043066192675
C           -3.46125048695644       -0.28817526209915       -0.01451525671140
H           -3.10306003772160       -2.98534627961038       -0.04056888549336
H           -3.60956996938965       -2.39940839749932       -1.63358783355157
H           -1.97615968016293       -3.04077386161432       -1.40380194630826
O           -3.53839670688740       -0.32094987550211        1.34081961951802
N           -4.28683582162817        0.27361270819504       -0.77381574861566
H           -5.64901267313713       -0.28718378164366        1.83348166029525
C           -5.42695640041964        0.97385653842983       -0.20933349168181
H           -5.14927527232315        1.47905132483600        0.72746283009022
C           -5.92291582410508        1.98067723868630       -1.24748516344697
C           -6.46855510471405       -0.08085834564862        0.08414942908576
H           -5.09828897230902        2.65349987601172       -1.48899204834608
H           -6.17289568286453        1.40821184726245       -2.13941416758845
C           -7.14357891255569        2.79106857894258       -0.80289044950299
O           -6.46075366635349       -0.55905119208471        1.38059312536261
H           -7.92850913096492        2.09357555960842       -0.49326632064123
C           -6.82075770633582        3.72197150016297        0.36475210867724
C           -7.66519312050969        3.60377952155254       -1.98612129784705
H           -5.99258224783286        4.37981965106572        0.10801972487088
H           -7.68510896882955        4.33768895987899        0.60271525539858
H           -6.55497233301712        3.16423130089455        1.25943616083264
H           -7.93354440293160        2.94647817474758       -2.80878491403510
H           -8.54675843964886        4.17243520859829       -1.70000752401168
H           -6.90435224126176        4.29994413194470       -2.33333748812558
N           -7.18278142148904       -0.53150418149944       -0.83629712546155
H           -8.25918053908109       -0.72812650181300        1.50256757626458
C           -8.13797514489453       -1.60393172343649       -0.75014988696657
H           -8.45570439312730       -1.79123882612810       -1.78237308364717
C           -7.58056639530173       -2.90455069800426       -0.15357040440697
C           -9.40200675391901       -1.21230367507542        0.03158038769255
H           -7.30774483441655       -2.77880170658751        0.89199352567940
H           -8.33033509469749       -3.68792222857867       -0.23124725640975
H           -6.69531104411508       -3.20446168752293       -0.71025089521540
O           -9.20527715997598       -0.75457730492428        1.26708108620713
O          -10.50180925444598       -1.33520897887050       -0.42703191678733
