42
 energy: -62.486133508286 gnorm: 0.000480560487 xtb: 6.7.1 (edcfbbe)
N           -0.96219048536381       -0.44747973053064       -0.57846719835200
H           -0.23007907467445       -0.81640416342179       -1.17372110568755
H           -0.80821142419584       -0.81576189454081        0.35649655022488
H           -1.86568108997062        1.22773727001941       -0.20189540377769
C           -2.28073040320378       -0.86377649462954       -1.05907493723747
H           -2.31855125438717       -0.63595207811022       -2.13252766885847
C           -2.61327869876268       -2.33726858619147       -0.84832586993346
C           -3.31100398523493        0.04169714804018       -0.39889744628419
H           -2.51478378971848       -2.59638647560142        0.20380310255647
H           -3.64137744385320       -2.51020194156947       -1.14695984230200
H           -1.94729685677323       -2.96775111131005       -1.43399051267171
O           -2.82981311744470        1.25282804695927       -0.03830609560367
N           -4.47809364659119       -0.38216325558151       -0.23911951470361
H           -7.60042943165104        0.51213032950237        1.61882761557642
C           -5.57282250875031        0.38632801230871        0.28873219748100
H           -5.41507708852070        0.57112027127350        1.36234143001481
C           -5.73825137359207        1.73188201438944       -0.45817815896231
C           -6.82492197240066       -0.43735586082849        0.09571366521788
H           -4.79533483050139        2.27291671319084       -0.37433235507144
H           -5.89447388849170        1.48380719335422       -1.51044149003955
C           -6.86841239551396        2.65016133255977        0.01885579843280
O           -7.86399095158815       -0.15700857343988        0.97575817584919
H           -7.82215343918733        2.11205912085526       -0.00521138163950
C           -6.61550106795143        3.17847235120336        1.43115568630620
C           -6.98856869091516        3.82720651469139       -0.94919301733698
H           -5.68966267050388        3.74938955729576        1.45314136195593
H           -7.42796441645829        3.83239311026221        1.74092443746062
H           -6.53028086442743        2.37955797922981        2.16641006674207
H           -7.21861469104271        3.47512477806419       -1.95163037770340
H           -7.78171061216038        4.50076038253367       -0.63288296984906
H           -6.05598059086036        4.38615067264573       -0.98544689354601
N           -6.87574617621480       -1.30862201776205       -0.79371586492618
H           -9.18806549015743       -0.29950173824491       -0.23787211080100
C           -7.97016097415727       -2.18907095730586       -1.10336336447754
H           -7.57672473742833       -2.88799027469503       -1.85061403987210
C           -8.50015855967608       -2.98651389457683        0.09715878298253
C           -9.15033641785322       -1.46157256812572       -1.76590676421944
H           -8.95302783375672       -2.33446740817746        0.84090618983252
H           -9.24294869103006       -3.70364241887297       -0.24354897187970
H           -7.67639240912154       -3.52282321041590        0.56247250764398
O           -9.66011526277421       -0.43785807577048       -1.08114365080929
O           -9.60727193758891       -1.80417613112495       -2.81899548288306
