42
 energy: -62.486133510994 gnorm: 0.000480003133 xtb: 6.7.1 (edcfbbe)
N           -0.75444199530222        0.03027560236070       -0.46871980463119
H            0.07249665619422       -0.29700351262782       -0.95326159375387
H           -0.60496167791318       -0.11598822360167        0.52585723458931
H           -1.94701640507349        1.56224331911023       -0.48697603513950
C           -1.94248000444787       -0.70001619396228       -0.90657845852872
H           -1.94016314103856       -0.68824513838867       -2.00497675988879
C           -2.02094028822135       -2.14675063634713       -0.42340837511998
C           -3.15059622882192        0.12186065554086       -0.47288517991551
H           -2.07303250313834       -2.18037002603555        0.66296112416798
H           -2.90659447111035       -2.62318871180209       -0.83035973846858
H           -1.14261621812929       -2.69920858184446       -0.75164998813667
O           -2.90880462521685        1.43634728636071       -0.35814010083737
N           -4.24298675673841       -0.46130672318149       -0.26174620813930
H           -5.10086814703452       -2.07691800696957        0.32821206994750
C           -5.49165116013796        0.18096962551920        0.09931616609237
H           -5.43647147379651        0.46334090039377        1.16097842055473
C           -5.87116351920826        1.41292106921997       -0.73178961487738
C           -6.52630628643259       -0.92681729555213       -0.02434386191503
H           -4.97929577959088        2.01613068691192       -0.89735321500646
H           -6.23163521234599        1.06364481903873       -1.70068180790541
C           -6.93815076103021        2.28976900451527       -0.06436642158117
O           -6.07410905865745       -2.15087014270423        0.28725907788036
H           -7.70575636954645        1.63997501819872        0.36504995902365
C           -6.33196466306765        3.13880708867751        1.05145570438044
C           -7.58741658517902        3.19711089101940       -1.10774325834512
H           -5.58088091695033        3.81427625818748        0.64697628325106
H           -7.10317726492388        3.73316559226115        1.53587855045627
H           -5.85876058714961        2.51954348163193        1.80976663644946
H           -8.07064965790498        2.61358109997891       -1.88734774228102
H           -8.33814820214738        3.83260191075095       -0.64431068057393
H           -6.83745951317492        3.83575546885714       -1.57028924095563
N           -7.68990327466424       -0.68214194901275       -0.43811785348713
H           -8.82009362169826        0.41228809654260       -1.32494830114981
C           -8.67832952132225       -1.72497728207154       -0.59064292669680
H           -8.24937149542520       -2.63418676207856       -1.03169100028615
C           -9.32965800913296       -2.08777657710199        0.74816395004989
C           -9.76426065938984       -1.18132385558739       -1.53121359180673
H           -9.72256147397129       -1.19208520353169        1.22537323391527
H          -10.14450016417961       -2.78466478389998        0.57368094160335
H           -8.59403514015651       -2.54643395040338        1.40421410700845
O           -9.63633444196472        0.11368409612706       -1.79320831700579
O          -10.65114064409909       -1.86004431143014       -1.96945840690383
