42
 energy: -62.486133517420 gnorm: 0.000479265617 xtb: 6.7.1 (edcfbbe)
N           -1.69206606986738       -2.07334916215884        0.27350787530300
H           -0.73713134940672       -2.30856015130134        0.02985433719202
H           -2.25824289299434       -2.90363021890384        0.11761065497646
H           -2.74840494859213       -1.23629900926842        1.66448723285138
C           -2.18665715015772       -0.98104688389281       -0.56571943287094
H           -1.42274599481433       -0.19233811947112       -0.55550847633140
C           -2.49534265503479       -1.37098552381826       -2.00880998477132
C           -3.41993088946075       -0.41175688466534        0.11509945966579
H           -3.23358587587807       -2.16933998855301       -2.02687713011572
H           -2.91477433928028       -0.51640868617547       -2.52703575575760
H           -1.59264846447822       -1.70361048623129       -2.51779224463135
O           -3.51194100666342       -0.66918968715889        1.43817071724482
N           -4.25088759756840        0.25351787476087       -0.54969683418507
H           -7.08197543719255        0.48799824685733        1.82981571803951
C           -5.41271781376597        0.81682999710383        0.09465236722589
H           -5.18966183327831        1.09245409806600        1.13839970344745
C           -5.82858399323526        2.05320815526286       -0.72084759749831
C           -6.53337995420942       -0.19488455905819        0.08595748929965
H           -4.96857202021074        2.72365508398032       -0.76724610194253
H           -6.03024480225345        1.69812022663613       -1.73175037988488
C           -7.04453365491718        2.81450785249273       -0.18347719234300
O           -7.39182841452407       -0.14711466738670        1.17274235598505
H           -7.86710172398345        2.11099025953299       -0.01369963068971
C           -6.72772350128692        3.53944523479484        1.12446724933224
C           -7.51111985512854        3.82488051668082       -1.23006141926321
H           -5.93663134494000        4.26909528261505        0.96470721927200
H           -7.60799583364213        4.06499926704809        1.48827825042418
H           -6.39986425984776        2.85466238410493        1.90428889216012
H           -7.80295919358212        3.31723426571383       -2.14575274694519
H           -8.36663936872398        4.38681743644234       -0.86240057325485
H           -6.71272252639129        4.52594294271385       -1.46325483653962
N           -6.65089985014157       -0.98863248639134       -0.86977471303783
H           -8.91485891525953       -0.39684004745577        0.22101959170246
C           -7.64735791685786       -2.01299562265474       -1.03947814029197
H           -7.32107513735281       -2.59122746764536       -1.91182280027402
C           -7.80227276782240       -2.95754606385487        0.16085622073895
C           -9.02754142066952       -1.43567226673209       -1.39097991024750
H           -8.19196261322428       -2.43633529554069        1.03253161804814
H           -8.48074777609856       -3.76604918978640       -0.09986114493132
H           -6.83186644453021       -3.37779394867625        0.41601924675858
O           -9.52294166030005       -0.55046257110441       -0.52644006289609
O           -9.63605198497664       -1.77431632993679       -2.36524402739245
