42
 energy: -62.486133506621 gnorm: 0.000480884689 xtb: 6.7.1 (edcfbbe)
N           -1.89210164195793       -1.10043850937809        1.66470506709176
H           -0.96696281107424       -1.50052410453853        1.56279183779372
H           -2.44050882702904       -1.74590859342704        2.22761178842875
H           -2.77109277886289        0.55813371760872        2.09531952556362
C           -2.53111782467445       -0.93063266826616        0.35890591005974
H           -1.81092274975408       -0.40894080278621       -0.28652717189086
C           -2.96395485458520       -2.22933718284166       -0.31616606411257
C           -3.69890224125752        0.02390958408665        0.55599281441070
H           -3.58996095936855       -2.81398558073107        0.35379833757417
H           -3.53666874789159       -1.99511303458252       -1.20659440414875
H           -2.09364686143239       -2.82195189032344       -0.59073626010785
O           -3.57589938656019        0.84473099525251        1.61848260100144
N           -4.65919701843195        0.01735214467161       -0.25340686092683
H           -8.00401112615853        1.77420610968338        0.40666563928143
C           -5.75356233872258        0.95002234735503       -0.12076752759193
H           -5.61966026533026        1.62964619031373        0.73551087014638
C           -5.78394203366175        1.74674102769444       -1.44313796016813
C           -7.01481392717592        0.14979762488727        0.10266954262879
H           -4.78611916713589        2.17390901806703       -1.56968739991683
H           -5.93023754084162        1.02015424149418       -2.24446920087208
C           -6.81571365895743        2.87162275239630       -1.58010734152702
O           -8.15964051801316        0.82295599356315        0.36309117892908
H           -7.82745143761592        2.45504938003809       -1.52123826707760
C           -6.64038727493711        3.95062059709282       -0.51096466715854
C           -6.67001298903398        3.50323717603433       -2.96546820803217
H           -5.64377395509217        4.38183331089216       -0.57841781897284
H           -7.36654216160005        4.74750563206796       -0.65775882806216
H           -6.76745124572446        3.56417430137469        0.49897362347317
H           -6.81147375410870        2.75782491607624       -3.74420628444620
H           -7.40893689727806        4.28901878227486       -3.10466834688485
H           -5.68010623194124        3.93858760906743       -3.08286539987397
N           -6.93995088085066       -1.10333496129389        0.13270240736823
H           -5.88339948459828       -2.51815709943341        0.15923463875413
C           -8.05114654510387       -1.97331640451676        0.41744876731580
H           -8.65219795518367       -1.61536512343496        1.26333202068286
C           -8.96472475984800       -2.15457672770833       -0.79912870088228
C           -7.43758569999173       -3.33762625636720        0.77798356838963
H           -8.37633448331658       -2.46177701473201       -1.66130370503463
H           -9.70545075130646       -2.91892278730908       -0.58126974034181
H           -9.46727944663097       -1.21798183611385       -1.02751768360730
O           -6.14072114869414       -3.41163739008528        0.50756175266880
O           -8.07262687577019       -4.24353114509525        1.24256083050851
