42
 energy: -62.486133497383 gnorm: 0.000482298375 xtb: 6.7.1 (edcfbbe)
N           -1.34562198958678       -0.09683562969724        0.48504807589672
H           -0.53192957822588       -0.58786796967172        0.84084945719815
H           -1.95654840720331        0.11181522346644        1.26781844676834
H           -2.80830584214529       -0.02786778877896       -2.61945010784215
C           -2.06173524337314       -0.93568898976876       -0.46103634223086
H           -1.44739888258914       -0.99324876653360       -1.37241033755514
C           -2.34289167851359       -2.36060878065314        0.04229128391011
C           -3.38019178098351       -0.26106083414075       -0.77525025344395
H           -2.96385049270344       -2.31024284238672        0.93294237742822
H           -2.86693378514639       -2.93957709742991       -0.71439511147440
H           -1.40811445209537       -2.86372384956695        0.28052888355677
O           -3.60715891858042        0.07652127016419       -2.08757739104475
N           -4.18987088022614       -0.08974248782894        0.16170580884935
H           -5.43134474546571       -0.44621371222491       -2.12271759672758
C           -5.48313110675376        0.55058566016802        0.09558712848374
H           -5.77927705293331        0.68882195293482        1.13960007192840
C           -5.47513622656622        1.91243370478500       -0.61998402517573
C           -6.49977141300448       -0.37500071000781       -0.53643151771267
H           -4.71408765575166        2.53440022672128       -0.14240944361483
H           -5.18092833900988        1.77526360073440       -1.66305329510301
C           -6.82753277596951        2.63349744374534       -0.58249866309211
O           -6.25831856743477       -0.82152069564220       -1.77939180872749
H           -7.59193747406949        1.96855531793084       -0.99972567414946
C           -7.23872653854988        3.01007425086245        0.83840535630158
C           -6.74941482319449        3.88818886809746       -1.45192747420236
H           -6.46256846288036        3.60746655470302        1.31265953733762
H           -8.15562493142599        3.59398841295731        0.81673188566149
H           -7.41967148271506        2.12630619570890        1.44357409621897
H           -6.49304408799265        3.63544265279969       -2.47854228011223
H           -7.70537114662740        4.40581675641808       -1.45737972590613
H           -5.99303601539503        4.56868420006279       -1.06601224371968
N           -7.53544917935625       -0.66970374336437        0.11886216643424
H           -8.71874444432796       -0.25789081602099        1.43505372511972
C           -8.55996197115178       -1.52712862413883       -0.43414580100331
H           -8.73555151791996       -1.32598651547864       -1.49885391468839
C           -8.19809668118115       -3.00673869608063       -0.26335494367462
C           -9.85523771232696       -1.25174786842245        0.34310153212785
H           -7.97645440845118       -3.21555289069299        0.78123226526444
H           -9.03635227822950       -3.62033575594982       -0.58085837937000
H           -7.32496565479911       -3.24590201680702       -0.86541990084951
O           -9.67487482184346       -0.49594310244790        1.41978621947780
O          -10.92102781573331       -1.69375779377595        0.01598298994610
