42
 energy: -62.486133518644 gnorm: 0.000478605371 xtb: 6.7.1 (edcfbbe)
N           -2.98512243278207       -2.49081030090095        0.29635248713526
H           -3.62697652041795       -3.01317057224021        0.88607315913870
H           -2.06528886340885       -2.90336776654967        0.39425675268453
H           -4.20632949221106       -1.91620568159734       -1.04215926118939
C           -2.96482514940577       -1.07936599722500        0.67350244123489
H           -2.93131052300399       -0.90454340587209        1.75749380059549
C           -1.76908479602367       -0.38556320106589        0.01920779420802
C           -4.24587940358465       -0.46408042676384        0.13086824276487
H           -1.78947022976364       -0.54262616215400       -1.05691462416745
H           -1.81123523906554        0.67957337399198        0.22418507319842
H           -0.83693100686794       -0.78459508176796        0.41324097838700
O           -4.74039100533334       -1.09745615982461       -0.94438850937994
N           -4.69301116559962        0.58145065858757        0.66935915984074
H           -8.30911157985117        1.63125648618646       -0.13616569624623
C           -5.94282607982112        1.18979741857193        0.27536018039803
H           -6.14013708734313        1.96442626542161        1.02790803746649
C           -5.75214899959298        1.83995293197606       -1.11715981062628
C           -7.09462594955032        0.20571689039727        0.30258359456582
H           -4.78417901282669        2.34635265572531       -1.07196773324974
H           -5.66403338924826        1.02918846853168       -1.84332323391975
C           -6.79162025802244        2.85066532164843       -1.61812445387216
O           -8.32943788356438        0.68152109308172        0.03266594988033
H           -7.73911084456820        2.34237987336752       -1.83346281186132
C           -7.03316207426793        3.98647019136244       -0.62384097687411
C           -6.29475360251547        3.43227712967998       -2.94340934720802
H           -6.09378479446664        4.48302021546567       -0.39094312290558
H           -7.70961537165843        4.72215655083385       -1.05392138269412
H           -7.47059973998408        3.63919026227543        0.31077751994608
H           -6.11704693686703        2.64025454919252       -3.66691249667432
H           -7.03068927702740        4.11695579670775       -3.35871415516880
H           -5.36495659998781        3.97674722398236       -2.79473611326060
N           -6.89175001715965       -0.97919744748423        0.66810372513975
H           -5.75149760439944       -2.10313201654438        1.29081631078331
C           -7.90453050917129       -1.99982587477217        0.75761660401371
H           -8.71664449061822       -1.69802454897670        1.43216332944289
C           -8.49995525560169       -2.37191302065483       -0.60308305140731
C           -7.20915593996911       -3.23628245756401        1.35605496022749
H           -7.69873821227174       -2.57944312733146       -1.30942176040870
H           -9.11766963435535       -3.25855540063077       -0.49105501997322
H           -9.10440874056804       -1.55291195338594       -0.98303860681879
O           -5.90957042527462       -3.04573840927362        1.56800849416131
O           -7.77482070088288       -4.26629284995168        1.59265050328752
