42
 energy: -62.486132262262 gnorm: 0.000628657237 xtb: 6.7.1 (edcfbbe)
N           -2.18839421267659       -1.04384373904227       -2.37007352509514
H           -1.55363193978263       -1.74827915298343       -2.72432928204537
H           -1.71256534015769       -0.14723086441302       -2.41530919549593
H           -4.01008536995117       -0.51009846524910       -2.59928771613573
C           -2.58309085337506       -1.33078283103944       -0.99306361691787
H           -2.84122357833256       -2.39644653223921       -0.94293410804234
C           -1.51746329496325       -1.02021144237962        0.05534114137078
C           -3.87313421574486       -0.56324938084556       -0.72738258547888
H           -1.23499373119785        0.02929226848724        0.00059625917055
H           -1.91767152843404       -1.21452524386848        1.04429344250825
H           -0.63367540715384       -1.63456569487873       -0.10510979227339
O           -4.55045847246277       -0.22042407859466       -1.83327415649319
N           -4.22261820181921       -0.35203220456762        0.46281905040759
H           -6.15779258145655       -1.44414169408713        2.31493032533938
C           -5.45959542503844        0.32531490082589        0.81571526642547
H           -5.36904174521137        0.52369993803986        1.89365841842590
C           -5.72663188782383        1.64089250923922        0.08061385751701
C           -6.56028575760627       -0.68874634509552        0.59664919063808
H           -4.81950642995831        2.24776670370142        0.11854434673628
H           -5.94609042682640        1.41082167893729       -0.95994398801719
C           -6.90094197693037        2.41948172164145        0.68516740739970
O           -6.78737131675142       -1.57258644694914        1.59490078690324
H           -7.70220759945749        1.70859665275195        0.91434370778613
C           -6.49788921875644        3.14334872959207        1.96822184324975
C           -7.43193420464361        3.42544828180090       -0.33384765147359
H           -5.72304760922744        3.87795287274048        1.75805882037298
H           -7.35316125763867        3.66215016826979        2.39532406607275
H           -6.11749810463663        2.45047851539603        2.71488866337370
H           -7.78372473334748        2.91409466408029       -1.22624658799522
H           -8.25936633078331        3.99341739773863        0.08540645189069
H           -6.64817893046297        4.12291806363603       -0.62182165029097
N           -7.15403689788945       -0.72327090737045       -0.51037162478033
H           -6.65490159503704       -0.70590957043914       -2.29930799611835
C           -8.14004901824962       -1.71823459332654       -0.84316042820818
H           -8.02419407305767       -2.64436392516203       -0.26349888181344
C           -9.55171777871757       -1.16457534512963       -0.62740738194653
C           -7.96701287739906       -2.05594314993196       -2.33257145551262
H           -9.65564421122556       -0.21146490407194       -1.14144304783325
H          -10.27762544791940       -1.86785520004568       -1.02562806769436
H           -9.73538610993603       -1.01586064267150        0.43405381829123
O           -7.05857290329627       -1.31945776223038       -2.95845719307236
O           -8.60377863935581       -2.91360067025920       -2.88012164547733
