42
 energy: -62.486133519569 gnorm: 0.000478174584 xtb: 6.7.1 (edcfbbe)
N           -0.99548883697464       -1.08887073862370       -1.11123643223805
H           -0.69781294764525       -1.91545799673775       -1.61127314813441
H           -0.47392493264115       -1.04239254390723       -0.24170921222650
H           -1.18070112972547        0.70429013221546       -1.24650186883364
C           -2.43254715979758       -1.12320291393726       -0.82973650408007
H           -2.90354635062488       -1.54219191508820       -1.72784592476209
C           -2.74687708229795       -1.96931626509692        0.41101321723629
C           -2.90638495562600        0.34925315087833       -0.63849762456047
H           -2.27396559188956       -1.52016224679867        1.28468120372416
H           -3.81007079941315       -2.05195289391554        0.61627447653905
H           -2.35364767785965       -2.97642245487571        0.27488432286643
O           -1.94932548362140        1.23561629742013       -0.94709784724486
N           -3.93750655109256        0.79341492661283       -0.09609567640404
H           -4.61364904370548       -1.30033148781548       -1.17749090770770
C           -5.33635606117644        0.73094079276242        0.03419838908517
H           -5.52186151444522        0.91415641966425        1.10224622644334
C           -5.87676930868830        1.97691039588099       -0.72942508320783
C           -6.12671259608645       -0.50745980898955       -0.32479249350502
H           -5.13257759748927        2.75376291533314       -0.55016219859557
H           -5.86888816139255        1.75323444865817       -1.79834960350959
C           -7.25638226347818        2.51078788267055       -0.33542141340613
O           -5.52089742630759       -1.53111509457818       -0.95509949143199
H           -8.02408446070874        1.87398496512190       -0.78062313437293
C           -7.46556301736571        2.56231667849168        1.17502011989167
C           -7.40999830142595        3.91456330406738       -0.91994199951016
H           -6.65576677773723        3.11397919036652        1.65050244037805
H           -8.39941805584801        3.07055278539157        1.40094296220197
H           -7.51234499433525        1.56527975868471        1.60472727092223
H           -7.23163515437688        3.90770337784356       -1.99223940894625
H           -8.41344653261550        4.29303185454756       -0.74314908381699
H           -6.69869298642350        4.59615525184415       -0.45726704052150
N           -7.38284511450357       -0.47684300933489       -0.18737073609965
H           -8.95314577128151        0.37613071809185        0.28163862681663
C           -8.20618406085528       -1.55160588349981       -0.69008726961119
H           -7.90302874396676       -1.84190404988261       -1.70745137564455
C           -8.17272470055175       -2.80060988500210        0.20162667170479
C           -9.65095095673826       -1.03758330862308       -0.73160886349971
H           -8.39639514127280       -2.52724986553679        1.23280060848881
H           -8.92038434253940       -3.50723869525143       -0.15222791642678
H           -7.19088186346856       -3.26410245537408        0.16115770934775
O           -9.83371856299381        0.08963816938867       -0.05702534957839
O          -10.53786896254291       -1.61888353377828       -1.29537380445078
