42
 energy: -62.486133515674 gnorm: 0.000479571785 xtb: 6.7.1 (edcfbbe)
N           -1.27905304314349       -1.60872928242348        0.81905961116005
H           -1.12706828728489       -1.16421222560393        1.71841270325483
H           -0.38476199887967       -1.94545264200061        0.48077897192652
H           -3.09156349037374       -2.24413342445234        1.03734253020836
C           -1.87391297054145       -0.66827493629049       -0.12754178632018
H           -1.45098584252798        0.34430735028848       -0.07983248633111
C           -1.72486585010942       -1.20411211759338       -1.55297211708820
C           -3.35772312533689       -0.58060478039917        0.19736188023985
H           -2.14885200377528       -2.20423065665289       -1.62691621320311
H           -2.23579644660471       -0.54333443542031       -2.24785197027972
H           -0.67394828486109       -1.25350145348513       -1.83014660843002
O           -3.85330316382189       -1.66551381615356        0.82949393844843
N           -3.98479887034461        0.46120221319030       -0.11808414076333
H           -4.91292583576933       -1.41314409545132       -1.18700660070070
C           -5.40397370630678        0.67688360624760        0.03087901997248
H           -5.59586698154949        1.00670937179408        1.05810077257043
C           -5.72735615349850        1.83540614817270       -0.94086197820057
C           -6.31397996075546       -0.50211733715974       -0.25063734216598
H           -4.96562869537785        2.59622138651200       -0.76354805594412
H           -5.58855808842128        1.46495835604411       -1.95953030883166
C           -7.11516636585171        2.46723036056979       -0.82520362792939
O           -5.85028700624817       -1.52795493830382       -0.98777831363651
H           -7.86743423677764        1.70330660685287       -1.03835191857123
C           -7.37345026925006        3.03555005226361        0.56725164976442
C           -7.24877318593417        3.57385459987424       -1.87112960552201
H           -6.61588030727313        3.77436257181274        0.82198408845620
H           -8.34774622342787        3.51735359019903        0.59817364724466
H           -7.36198991205758        2.25163468960598        1.31969163255276
H           -7.08307740120686        3.18284125774734       -2.87230822951421
H           -8.24479797528754        4.00767711441414       -1.83504212964340
H           -6.52310139411020        4.36342092505430       -1.68618530076368
N           -7.54159179315014       -0.37738919106551        0.01796607235698
H           -8.96783935522001        0.59218950143778        0.64419303749625
C           -8.49564378747373       -1.39985892863711       -0.34857050418803
H           -8.36530912915633       -1.72227524153936       -1.38984606798708
C           -8.39515265911868       -2.62782562597509        0.56387560800282
C           -9.89774181694061       -0.79747935530839       -0.18689292586910
H           -8.49195185543569       -2.32496786731989        1.60472651582798
H           -9.19235574282510       -3.32401615308108        0.31907602671942
H           -7.43268907156416       -3.11339848498094        0.42475786448786
O           -9.90775377103813        0.36127438894317        0.46160517861831
O          -10.89153519624540       -1.33588301651214       -0.58955721811636
