42
 energy: -62.486133526599 gnorm: 0.000478400419 xtb: 6.7.1 (edcfbbe)
N           -1.40581551750267       -0.69287803721901        0.48868493691808
H           -0.67529450388607       -1.38200412589504        0.35693856812564
H           -1.45574812551016       -0.48959365236566        1.48337785627653
H           -2.02381932122440        0.95873090693196       -0.26943921274946
C           -2.69588392523479       -1.20913721206472        0.02958995959512
H           -2.53799643018129       -1.61867688693605       -0.97733190036291
C           -3.31089153280538       -2.28481493457141        0.92001336235201
C           -3.62635896365301       -0.01039529238488       -0.13141425983118
H           -3.45922463666580       -1.89983659465667        1.92605402725959
H           -4.27708962757026       -2.57311604613661        0.52276853891789
H           -2.66274014244023       -3.15761748896124        0.96476445858742
O           -2.97903201257370        1.15302107910572       -0.36160299589948
N           -4.85954109549636       -0.20130211988112       -0.04188963786592
H           -7.54315136244874        0.97268076829414       -2.08524385733191
C           -5.92754166106439        0.75821250994805       -0.18447538336955
H           -6.11727175212280        1.15974253485802        0.82061351912919
C           -5.68569674694354        1.92743676913498       -1.15022480640364
C           -7.14015641159467       -0.09786612551015       -0.54140179878081
H           -4.68591594579963        2.31711661562317       -0.96326432931872
H           -5.68130429682865        1.55334617997702       -2.18051693673083
C           -6.69105793494866        3.07987941202479       -0.98390023566545
O           -7.88534008463716        0.19612882521718       -1.62400718496876
H           -7.69635982975630        2.68142819331263       -0.79895820086998
C           -6.31209822749358        3.95299735541547        0.21089030175744
C           -6.73039728808873        3.92885137304000       -2.25440998924860
H           -5.33073418102323        4.39647194395147        0.05773812023453
H           -7.03555153416841        4.75463433045853        0.33999942756427
H           -6.28526502470479        3.37059369989864        1.12855853503563
H           -7.05145134706098        3.34413429860152       -3.11516562041073
H           -7.42133747425710        4.75999307392541       -2.13494607887000
H           -5.74297484002439        4.33314177828429       -2.46623626066338
N           -7.37744785926747       -1.07407164423402        0.21345374936435
H           -6.77821952939135       -2.06579876446203        1.55088504596016
C           -8.43626516332543       -2.03194466363523        0.01959636953100
H           -9.42052317669600       -1.54906902490240        0.07118876775761
C           -8.33477222407587       -2.80711734313106       -1.29848842989454
C           -8.32420686509388       -3.03484504142267        1.18395873647319
H           -7.33437465597515       -3.22211699843786       -1.40514317647219
H           -9.05801877875515       -3.61792336522042       -1.28914207985931
H           -8.53765541645106       -2.15006338813106       -2.13956302230012
O           -7.24076729525586       -2.85843123681346        1.92658960647216
O           -9.13089853294595       -3.90194751221643        1.38003672463413
