42
 energy: -62.486133521954 gnorm: 0.000478752779 xtb: 6.7.1 (edcfbbe)
N           -1.69953374699583       -2.03926041851337        0.09460262049217
H           -1.31166273935941       -1.74867417430142        0.98619677472189
H           -0.95404970057248       -2.45909760316056       -0.44829115679527
H           -3.55914046524580       -2.39907902331898        0.51950620910494
C           -2.27485837388882       -0.89748592982215       -0.61471390949297
H           -1.66435278596427        0.01426297927086       -0.56314629791496
C           -2.50714437496350       -1.26531856231254       -2.08044090805515
C           -3.63367118208240       -0.60552087814383        0.00369699963956
H           -3.13340492797671       -2.15193062499640       -2.14713596614251
H           -3.00776880644356       -0.44442709597657       -2.58386540235561
H           -1.55989135663678       -1.46395306733140       -2.57796764847406
O           -4.20724353530343       -1.66804281164746        0.59138580255176
N           -4.06642507814504        0.57090394391272       -0.05590592676720
H           -7.06893496845910        0.75677851759264        2.06162539685728
C           -5.38862800761430        1.01003700633783        0.30575199423683
H           -5.29849972918531        1.51949045955268        1.27769688428494
C           -5.81210152354752        2.03314296225105       -0.76714890597949
C           -6.44924981811205       -0.06119122852209        0.39982514620733
H           -4.99670260909239        2.74888915574427       -0.87682129558224
H           -5.90621050405610        1.48062226483849       -1.70282508995363
C           -7.12209475569520        2.77168745495654       -0.47450373312792
O           -7.31963606052363        0.03428428800871        1.47400148250679
H           -7.89725482454966        2.04225471989611       -0.21392742041839
C           -6.96947304900923        3.76874595093390        0.67347726705675
C           -7.58065032325078        3.50503859927289       -1.73371181913018
H           -6.22510443296317        4.52027489167926        0.41941144175766
H           -7.91432189121640        4.27338372076737        0.86267455818190
H           -6.65789104700125        3.28454234410826        1.59674573960988
H           -7.75225636954539        2.80046525167842       -2.54339219695158
H           -8.50724233871190        4.04240432920623       -1.54604690398976
H           -6.82531281408742        4.22027008243742       -2.05193732369731
N           -6.51029989652079       -0.94249191181698       -0.48251755393940
H           -8.81597253843356       -0.42480023386266        0.56065636671111
C           -7.43338161195845       -2.04340347839348       -0.55929601040160
H           -7.06098941682630       -2.67607422948386       -1.37349567003650
C           -7.52611357312670       -2.87867267537578        0.72463402625554
C           -8.84292056729374       -1.59056121527428       -0.96513654653250
H           -7.99454002006378       -2.32030992050729        1.53225906884808
H           -8.10674198291593       -3.77751109720959        0.53287269723941
H           -6.52226536495776       -3.15726840088362        1.03630060620972
O           -9.40624825899928       -0.67543371604087       -0.17524398123719
O           -9.41600592956791       -2.03899655116078       -1.91691475024066
