42
 energy: -62.486133523087 gnorm: 0.000478419490 xtb: 6.7.1 (edcfbbe)
N           -1.56380141080924       -0.43641362463268        0.82416348595053
H           -0.75372510031173       -1.03076935102850        0.69331446822417
H           -1.72902022250645       -0.36516920837762        1.82475932987244
H           -2.28766871901054        1.23588719939465        0.17690515946247
C           -2.74112960300558       -1.01560523511472        0.17440559527717
H           -2.44573335113212       -1.27016192728903       -0.85263193285179
C           -3.30636857045297       -2.25725015272127        0.85678308565050
C           -3.77720655042579        0.09475046541196        0.06196864415205
H           -3.64782156411851       -2.01420115003087        1.85975457265074
H           -4.15239318799462       -2.62999385190061        0.29147054821064
H           -2.54584421128682       -3.03328593125014        0.91780153329559
O           -3.24587594062127        1.33541506902349        0.00662849438203
N           -4.99323552450036       -0.20549990936290        0.03283236096403
H           -8.25209822074197        1.37014173983901       -1.11766193652455
C           -6.08202924929899        0.72578740339051       -0.12358360847632
H           -6.21425774901908        1.26129898093808        0.82960910199839
C           -5.91143547803638        1.76128469924613       -1.25781954732721
C           -7.32619780204362       -0.12311533280456       -0.32863495004127
H           -4.84775458823301        1.88081131404452       -1.45794336072385
H           -6.36115530508411        1.36470111395886       -2.17328152376127
C           -6.48963651928382        3.14800780821462       -0.93039617913201
O           -8.42013312729389        0.45009621714262       -0.87788802976446
H           -7.45667293920548        3.04541854493601       -0.41805925256546
C           -5.55106516276357        3.91172179717713        0.00107964041143
C           -6.71153627019476        3.94116427111531       -2.21739433921381
H           -4.59887942118708        4.09151867197100       -0.49179837880824
H           -5.98512936101816        4.86936770573989        0.27947786505638
H           -5.35662460618712        3.34596225600522        0.90871132307374
H           -7.41595368075830        3.43624072578084       -2.87628745758288
H           -7.10501173384567        4.92962030452523       -1.99198001067672
H           -5.77120813144910        4.06095793665736       -2.75051792437233
N           -7.30212552155506       -1.31694041071137        0.05676279743263
H           -6.41205783130082       -2.54684236445758        0.94690487735180
C           -8.40835215950034       -2.23200112753086       -0.05114016779660
H           -9.33505015459857       -1.80366056387139        0.35258294296300
C           -8.65972815382728       -2.68018686338367       -1.49444447301926
C           -8.02526498995611       -3.46408501324616        0.79032757884892
H           -7.73414954094038       -3.04804519241723       -1.93254771801549
H           -9.39761389136872       -3.47751829292410       -1.49768506303288
H           -9.02561751319035       -1.84495819308607       -2.08600279323222
O           -6.78278093096609       -3.41825985744301        1.24794779302838
O           -8.77684732159305       -4.37821666451325        0.99244289290418
