42
 energy: -62.486133518503 gnorm: 0.000479511466 xtb: 6.7.1 (edcfbbe)
N           -0.86872227984564       -0.76476515408296        0.45940951070056
H            0.08483703017171       -0.68212711702459        0.12991099638071
H           -0.99072327437910       -1.71250538044680        0.80556525397809
H           -2.08850458303529        0.19679884363443        1.57102468417631
C           -1.82475724941622       -0.49501036093295       -0.61385761710173
H           -1.46365222447236        0.38103664508407       -1.16640663258947
C           -2.03392330438315       -1.65069337150366       -1.59071303490170
C           -3.13531818531001       -0.07662838507571        0.04031007193054
H           -2.32564323761669       -2.55222520144887       -1.05379866854333
H           -2.82435983659432       -1.39195002502845       -2.28741326265198
H           -1.11866099525050       -1.85366915697098       -2.14246372431086
O           -3.02957933109116        0.30986455459520        1.32400062490686
N           -4.19583473983480       -0.09058162103599       -0.63707454748564
H           -4.96148481620902       -1.97076615150935        0.22810386133519
C           -5.45935488752404        0.34156331606059       -0.07427457443898
H           -5.35540804631415        0.58374798597535        0.99607074941162
C           -5.95268592050359        1.57707042813680       -0.83648980884215
C           -6.42232483427753       -0.82277401092316       -0.17488575033345
H           -5.09229856756805        2.22131260997712       -1.02899500655230
H           -6.34190414390593        1.24394054037641       -1.79843329327647
C           -7.02183772297684        2.37320488552464       -0.07865685334286
O           -5.92371384372937       -2.03371788534600        0.15034513999346
H           -7.72099734163463        1.66576747068052        0.37600464407852
C           -6.39474624393660        3.22383209342866        1.02470704691979
C           -7.78981293019596        3.26977454225378       -1.04808721155398
H           -5.73717699996697        3.97643295853809        0.59375229842032
H           -7.16739010827196        3.73261839746328        1.59638748655712
H           -5.81169097746208        2.61543131602882        1.71168508795213
H           -8.29001201543866        2.68150407356520       -1.81314891558568
H           -8.54254441679297        3.84606962510600       -0.51554404941891
H           -7.11074227369439        3.96492253958999       -1.53768570522747
N           -7.60903702760917       -0.64207307428033       -0.54946056176545
H           -8.81298365928825        0.39710773043718       -1.40980835734726
C           -8.55394646812730       -1.72799529432056       -0.66553519241795
H           -8.09816807452641       -2.62098944963486       -1.11226392348053
C           -9.15299014243899       -2.10724970290045        0.69298658066895
C           -9.68948499458579       -1.23975400266186       -1.57883546403599
H           -9.57847280216793       -1.22709084047312        1.17102102176604
H           -9.93619995032826       -2.84538784645718        0.54527605762704
H           -8.38039251455644       -2.52203987191215        1.33558025680631
O           -9.62736273501123        0.05742594067653       -1.85213731572986
O          -10.55618459167854       -1.96145844099071       -1.98723686866075
