42
 energy: -62.486133515402 gnorm: 0.000479955312 xtb: 6.7.1 (edcfbbe)
N           -0.98239651017420       -1.47368896002999        0.42421045395748
H           -0.90960424819730       -1.34294892517001        1.42783782649138
H           -0.04398825760925       -1.49190999125699        0.04306515402712
H           -2.55210003546301       -2.49336212274824        0.20904359975995
C           -1.77113906297251       -0.40252784093335       -0.18329318271050
H           -1.58000005940795        0.58993266767453        0.24566506800594
C           -1.51000442086538       -0.35619327434061       -1.68912634151616
C           -3.24200073941851       -0.74411785267269        0.03259936165512
H           -1.70247135613999       -1.33059284616755       -2.13362958368782
H           -2.16479382291363        0.37801405564382       -2.14876352064620
H           -0.47665765376103       -0.07940933091230       -1.88698912950159
O           -3.44587162079344       -2.08583404457051        0.17012510512144
N           -4.06593248333874        0.18653945779336        0.04379326063058
H           -5.11408197109733       -2.13381598142140        0.25531987088697
C           -5.48552185424218        0.37805224053679        0.14343782465866
H           -5.64009427291773        0.78271530651695        1.15414128073319
C           -5.73330022295613        1.52072321273861       -0.87186467177704
C           -6.47324546264383       -0.77563421139017        0.00192303334138
H           -4.90216934154055        2.21284793119289       -0.72116808814856
H           -5.63220299806748        1.09999537291067       -1.87412988885882
C           -7.04266757420110        2.31212743721673       -0.80081657160036
O           -6.08103831991357       -2.04164232052434        0.17870276316721
H           -7.83401391125579        1.71557811130908       -1.25598605399833
C           -7.44172993125149        2.66461284313810        0.62849875511820
C           -6.88798182556538        3.58823959572827       -1.62920034982100
H           -6.63912269618832        3.20539970247074        1.12623317540599
H           -8.32593855476046        3.29770075875400        0.62240282087537
H           -7.66978086732419        1.76851173604619        1.19951712021740
H           -6.58064648247877        3.35191278241510       -2.64507908010133
H           -7.83240766878489        4.12469944023572       -1.67484438222118
H           -6.14091603062124        4.24476615823524       -1.18760136767468
N           -7.68387087559590       -0.49633701652578       -0.24126936257069
H           -9.18437241957151        0.64592124216205       -0.39023941448331
C           -8.66101098089423       -1.56183096009792       -0.34324496766711
H           -8.30680260985105       -2.37927030724004       -0.98282340451931
C           -9.02988526437197       -2.13535622368309        1.03285571749801
C           -9.94195323527844       -0.97038129161588       -0.93640914576007
H           -9.36549899076836       -1.33615676854690        1.69178466611182
H           -9.82994215891142       -2.86144152302626        0.91836303282002
H           -8.16425810303974       -2.62106611485800        1.47516397502941
O          -10.03568074331033        0.34625151438062       -0.77778930849232
O          -10.79909561499423       -1.63304976315657       -1.45148071970344
