42
 energy: -62.486133530003 gnorm: 0.000478362891 xtb: 6.7.1 (edcfbbe)
N           -1.13195132114772       -1.60777019016145        0.68509357198828
H           -1.09951818301900       -1.43370694944336        1.68408686539754
H           -0.18039475280714       -1.72052094521056        0.35639432870052
H           -2.76774016535372       -2.51298501565485        0.45296954812402
C           -1.79783883813921       -0.50868246552043       -0.01265482922786
H           -1.55886160554141        0.48407904599602        0.39025257210322
C           -1.44016121875954       -0.54438554908386       -1.49863143253033
C           -3.29898918411612       -0.73202424007122        0.12603879384167
H           -1.66512762639314       -1.52358853580120       -1.91688438522022
H           -2.01502031906560        0.20895472161387       -2.02900031376118
H           -0.38066156147796       -0.34050215942663       -1.63778735459319
O           -3.62061798422334       -2.04235289690638        0.32323465479615
N           -4.05956118325841        0.24918898680512        0.02525982199272
H           -5.09993001503155       -1.99634516368572       -0.57860046583061
C           -5.48221496801280        0.44064791556996        0.09286021993416
H           -5.69162100488436        0.78148193057381        1.11339539281661
C           -5.71554158556644        1.62948495871226       -0.87763160789961
C           -6.45964665990976       -0.68157258166616       -0.22584543111407
H           -4.90845764168826        2.33554468389413       -0.67405461252968
H           -5.57656282298024        1.25582133547286       -1.89490997284971
C           -7.05276511337948        2.36680140941404       -0.79998385432088
O           -6.04413225535909       -1.84241553854163       -0.74858135925835
H           -7.85002635096285        1.68224798729116       -1.09697174803941
C           -7.34174311683142        2.88820576121821        0.60461301494352
C           -7.03299595942775        3.53032500743013       -1.79152393047323
H           -6.53681799365579        3.53899068860467        0.94056153442187
H           -8.26750175004260        3.45804038580220        0.60734448637755
H           -7.44661646799044        2.07121928697809        1.31331280722908
H           -6.82527840909468        3.17657170828736       -2.79857635888737
H           -7.99591429262617        4.03455127400385       -1.79922947375837
H           -6.26822454382119        4.25411166668188       -1.51704402096715
N           -7.68962265600553       -0.41838383445803       -0.08707381119156
H           -9.07308911575257        0.69556649303125        0.39590000982900
C           -8.70494656345032       -1.38973909849071       -0.43331552108766
H           -8.54300760572420       -1.80491992111129       -1.43582887017202
C           -8.77085509563824       -2.54567092072488        0.57346740046632
C          -10.05960598171315       -0.67047611759510       -0.40668913239166
H           -8.89091929167186       -2.15335910094500        1.58172826430613
H           -9.61991345924353       -3.18000529776415        0.33481770801939
H           -7.85741099216169       -3.13266180340964        0.52666061741824
O          -10.01659894732537        0.52377432109349        0.17248699975363
O          -11.06778664724860       -1.15556723605129       -0.84072467352869
