42
 energy: -62.486133510730 gnorm: 0.000479899324 xtb: 6.7.1 (edcfbbe)
N           -1.70617162305578       -2.02857847639493        0.15702211187014
H           -1.29770529189759       -1.71488480195659        1.03100746864962
H           -0.98262656531394       -2.49448248017340       -0.37698545720285
H           -3.54631413944760       -2.32804752701524        0.62817073569940
C           -2.25715053572615       -0.90072785695487       -0.59305821159019
H           -1.63439382708903        0.00348746624328       -0.55733304575660
C           -2.47074560943682       -1.30369371270986       -2.05188184772401
C           -3.61923416801435       -0.57126143440792        0.00206597722463
H           -3.10402900261005       -2.18604595678180       -2.10605125522714
H           -2.95565640962764       -0.49079949924634       -2.58259097787581
H           -1.51767037973295       -1.52248391871775       -2.52967922797927
O           -4.19319828493775       -1.59180687278570        0.65933402765196
N           -4.05715908726126        0.59496249004367       -0.14694842065338
H           -6.85727301440674        0.86745861222360        2.14257186980283
C           -5.37174841365703        1.06244666510799        0.20741892284655
H           -5.25274579327013        1.67374000430306        1.11506071417145
C           -5.83867759432232        1.96290877476046       -0.95306293020451
C           -6.41956955046783        0.00098248161744        0.44782653666179
H           -5.03871884252205        2.67420466382074       -1.16123447651490
H           -5.95236101680762        1.31349683093856       -1.82181466206327
C           -7.15221576137564        2.70829941999185       -0.69674436720779
O           -7.17765154798547        0.13787527924440        1.59932727100265
H           -7.90465447515702        1.99666402436026       -0.33835941083792
C           -6.98445563610866        3.81840840041882        0.33969303292673
C           -7.66018970864614        3.30193451798082       -2.00936220775325
H           -6.24722644759436        4.54168361875252       -0.00193950181501
H           -7.92820271333613        4.33725761092652        0.49163486695455
H           -6.65774295918270        3.43074620862579        1.30221164735818
H           -7.84333397969704        2.51543466834174       -2.73698512290982
H           -8.59011248824555        3.84251257497420       -1.84908605585212
H           -6.92699751200642        3.99148007482720       -2.42232461100920
N           -6.56822555213355       -0.91251851193173       -0.39077778729074
H           -8.75800419786168       -0.34176067804332        0.85281967438366
C           -7.49297749065307       -2.01317870179624       -0.32898423232960
H           -7.20346223985667       -2.67992088974885       -1.14959249816275
C           -7.45601433329493       -2.79527418175435        0.99100027979687
C           -8.93746721954303       -1.57561479992940       -0.60808023350546
H           -7.84192141318328       -2.20288917492356        1.81781390812355
H           -8.05218326482794       -3.69925477122951        0.89492443317030
H           -6.42588295469933       -3.06372666545867        1.21223792475720
O           -9.41869452904504       -0.62291513153493        0.19180459751076
O           -9.60542570007247       -2.06814376388797       -1.47213440433583
