42
 energy: -62.486133514070 gnorm: 0.000479215252 xtb: 6.7.1 (edcfbbe)
N           -1.45259180023123       -0.59969896844389       -0.54619658118499
H           -1.14663646025061        0.34129620267110       -0.77023458965754
H           -1.07774153527639       -1.23380336778980       -1.24263005764826
H           -1.60187257691172       -0.53804816560930        1.34314093887751
C           -2.90962728617155       -0.68423738384728       -0.48476863469470
H           -3.38782120844335       -0.16506420907182       -1.33142443432690
C           -3.31853870768757       -2.15744513950838       -0.47417773041196
C           -3.34294416184781       -0.04787979933240        0.85333323804709
H           -2.79372550334605       -2.67408822081061        0.32637753270428
H           -4.38630671876239       -2.26111208425928       -0.30910001414741
H           -3.06529493100865       -2.62989213051241       -1.42166650962849
O           -2.39267894673094       -0.16606484347817        1.78717237493601
N           -4.40512759116682        0.51490164000062        1.20994251887199
H           -5.24568660034378       -0.08074623539071       -1.72183909339809
C           -5.62988320105016        0.87212025641792        0.55368816326370
H           -6.28868714402146        1.17366579889903        1.37553226987848
C           -5.40921870391767        2.08597682690174       -0.37259819184018
C           -6.36833961707749       -0.23539851647482       -0.17186884819997
H           -4.98653256998211        2.88433787890026        0.23991762265349
H           -4.65766746715340        1.84076532693757       -1.13190451154683
C           -6.68107425435449        2.59288647845721       -1.06438142314327
O           -5.94534587281554       -0.65343793773737       -1.38531102890635
H           -7.11784191969738        1.78200109122611       -1.65910106189257
C           -7.72578688086503        3.05827481617434       -0.05387040516407
C           -6.31649766382013        3.73780384966762       -2.00932117057203
H           -7.29924252172622        3.79749775524091        0.62007103758129
H           -8.56764277655967        3.51109720346713       -0.57211145596314
H           -8.10087640006164        2.22413957873386        0.53211182692409
H           -5.58593442677934        3.41852781182949       -2.75036548507019
H           -7.19993990885715        4.09123787017022       -2.53480697297430
H           -5.89540792772649        4.56940997084764       -1.44874583521452
N           -7.42470056248964       -0.67357207382399        0.35594482360653
H           -8.71558518035372       -0.58045778594665        1.65656524283455
C           -8.24052739785344       -1.68150078605847       -0.28092057189390
H           -8.40942550499983       -1.45268628610581       -1.34148711067270
C           -7.62429631048477       -3.08079297078377       -0.17301242917861
C           -9.59660823187627       -1.69288529581200        0.44189547979536
H           -7.36599639844240       -3.29381157809724        0.86249900890287
H           -8.34571291663291       -3.81534188021487       -0.52001516030669
H           -6.72744124868198       -3.14286710531124       -0.78472935521971
O           -9.60719742990134       -0.98711236366795        1.56508964688809
O          -10.54618688370435       -2.30002167793786        0.03224176442800
