42
 energy: -62.486133513519 gnorm: 0.000479998559 xtb: 6.7.1 (edcfbbe)
N           -1.55021013004114       -0.80871404813567       -0.03565452942366
H           -0.92473813697849       -1.60045954153436        0.05047796359986
H           -1.19125948607182       -0.06943129447738        0.56273513950874
H           -2.41485352549918        0.18948296972087       -1.38294886251227
C           -2.90695467078540       -1.16631175105295        0.38176673182123
H           -3.14946650377108       -2.12894363073335       -0.08538253772222
C           -3.09564188124137       -1.28069582813872        1.89150740192045
C           -3.85879822460894       -0.14085597414905       -0.23424597858031
H           -2.82635821096852       -0.34296787991033        2.37430198766203
H           -4.13545893210037       -1.49492138822029        2.11187702650915
H           -2.47206917527778       -2.07757756660881        2.29163607243253
O           -3.33987945334667        0.50491909083727       -1.30016510845051
N           -4.99826919264654       -0.02507756452065        0.26789353629577
H           -8.20113158662255        1.14586822196502       -1.39585184654250
C           -6.10421671055102        0.80036229507314       -0.13054432289554
H           -6.34520086382555        1.38913256685132        0.76867970368139
C           -5.93304610789785        1.76558178064290       -1.32193213740398
C           -7.27607317239505       -0.15453995282613       -0.32121484014099
H           -4.87420888875378        1.99047517612263       -1.43304806104467
H           -6.24073983141057        1.26388125927463       -2.24454936964967
C           -6.68367729970305        3.09751639526583       -1.15159947190111
O           -8.34028613566934        0.25860479609897       -1.04078292231328
H           -7.66963983258610        2.92787507660910       -0.69711616050732
C           -5.90612529797726        4.03207375219225       -0.22626408370977
C           -6.88854321533590        3.76193183746388       -2.51240825716720
H           -4.94655406885007        4.28723080928519       -0.67060042101271
H           -6.46209226563346        4.95160237605749       -0.05740534831461
H           -5.72195217486485        3.56321821865415        0.73766539155264
H           -7.48900284349117        3.13704525368200       -3.17133622389538
H           -7.39341472496074        4.71844338888237       -2.39798145900467
H           -5.92799767999335        3.93702363017880       -2.99166431277321
N           -7.21766889901499       -1.28072446298261        0.23034749391935
H           -6.31247243307460       -2.33157024912641        1.30879503925034
C           -8.25147514590200       -2.28099236088135        0.16481783960702
H           -9.22843904796606       -1.87641657273199        0.45917121924529
C           -8.37665465804200       -2.91321132850951       -1.22519831366673
C           -7.84554135555565       -3.37657758027204        1.16936930063312
H           -7.40220299361839       -3.26281532192559       -1.56049995902067
H           -9.05891557467067       -3.75699387397457       -1.17301171401662
H           -8.75617472839547       -2.18324938045840       -1.93539204994083
O           -6.64160195594904       -3.18753682765229        1.69021492160764
O           -8.54718424451793       -4.31370998797231        1.43447600808016
