42
 energy: -62.486133515668 gnorm: 0.000479789177 xtb: 6.7.1 (edcfbbe)
N           -0.88462550419979       -0.48278937404642       -0.16103190233160
H           -0.06857694229195       -0.76879448367180       -0.68889734511164
H           -0.87765162900498       -1.00044288974310        0.71393759005225
H           -1.84014500698172        1.14513955407085        0.35116223477344
C           -2.11215791664453       -0.78077582131045       -0.90010466211771
H           -1.97920985295040       -0.38812399070557       -1.91688907311018
C           -2.47837553132875       -2.25992784299342       -0.97813338580573
C           -3.22728496004382        0.03664502848745       -0.26886445610499
H           -2.55817635349710       -2.67948771450202        0.02267116152831
H           -3.44128285469454       -2.35954738038525       -1.46708296047540
H           -1.72467329502385       -2.81213364017207       -1.53586409937059
O           -2.81719727567424        1.15869432192063        0.36004241236998
N           -4.41775966999784       -0.34922300542679       -0.36590640903528
H           -6.82647844476155       -0.16852701749917        2.11503287827638
C           -5.50229416461143        0.44530999985024        0.16035395672521
H           -5.26425194783710        0.79718619481639        1.17735481636163
C           -5.75833114933167        1.65816557353004       -0.75284464715358
C           -6.73528101326988       -0.42633939545025        0.18151540406642
H           -4.85150268687199        2.26505799054710       -0.77320354063704
H           -5.93599254787536        1.25760615233400       -1.75161948877556
C           -6.94797209881776        2.52692661955631       -0.33379105400593
O           -7.34028032422104       -0.59404946722366        1.41804429412784
H           -7.83006810670414        1.88811921247084       -0.21349727116899
C           -6.68479114515247        3.26280694611416        0.97889112510816
C           -7.24392265253441        3.53583457081620       -1.44186706870972
H           -5.78700052279067        3.87189579233623        0.89581616282533
H           -7.52166784982724        3.91510112894588        1.21773879202789
H           -6.55313294306177        2.57320965626932        1.80966585272346
H           -7.47317315337909        3.02236861682254       -2.37202243667954
H           -8.09562441713897        4.15685394746368       -1.17501643285699
H           -6.38390741082506        4.18201183802078       -1.60567867141745
N           -7.14654706385108       -0.93689097853315       -0.87951604909210
H           -9.04462730586406       -0.49478102423967        0.81826065017184
C           -8.27721905730707       -1.80907168589593       -1.05499502831201
H           -8.21462461795308       -2.15899607707900       -2.09192699995257
C           -8.29558644436895       -3.02355973869378       -0.11639481160324
C           -9.61691562137582       -1.06786110003855       -0.92535005263731
H           -8.41810399465534       -2.72402532105763        0.92223552974289
H           -9.11437584322486       -3.68321635565049       -0.39309444981354
H           -7.35623313193174       -3.56317848045992       -0.21261643232392
O           -9.80689178869519       -0.40475198734721        0.21579159627454
O          -10.45227701951214       -1.09446411533119       -1.78337061525242
