42
 energy: -62.486133525802 gnorm: 0.000478440734 xtb: 6.7.1 (edcfbbe)
N           -2.10985674057646       -1.41398535762039       -0.43395832576868
H           -1.49058574687870       -2.17570633390584       -0.18451820991150
H           -1.54502799066221       -0.57280038002033       -0.50915683331110
H           -3.55416519969553       -1.06814570733272       -1.67497115178200
C           -3.14445267724825       -1.22732772026444        0.58369108628165
H           -3.55754192634280       -2.21809110954867        0.81281411506221
C           -2.66534197800626       -0.57424273492949        1.87633779463563
C           -4.27332901482719       -0.43876919119360       -0.06083120718879
H           -2.22903058857103        0.39997171655907        1.66635732254879
H           -3.51194852770524       -0.43431974282314        2.53887632888642
H           -1.92088491662706       -1.19918968522857        2.36525025460626
O           -4.33507137366916       -0.54584885193057       -1.40012501338501
N           -5.07921480399862        0.19682877714605        0.66530644475006
H           -8.10415265591085        1.12680647188441       -1.46571553321425
C           -6.21446883681008        0.89201274871937        0.10063057534106
H           -6.63445625137127        1.46816166861944        0.93800801933981
C           -5.87001099065856        1.85545213941472       -1.05323817679898
C           -7.26252516488667       -0.13612823471550       -0.28708842594178
H           -4.80872148361725        2.09899009519217       -0.97670238878480
H           -6.00281395392567        1.34208320670230       -2.00928699774168
C           -6.66773520789333        3.16912445631401       -1.02666639835152
O           -8.23963315450831        0.22685288157266       -1.14291566683448
H           -7.71346443933717        2.97068994709085       -0.75491413473050
C           -6.09180153461101        4.12490755363685        0.01626099773835
C           -6.64584149070591        3.82390260617002       -2.40732788560620
H           -5.07865899673852        4.41203621364654       -0.25657312237967
H           -6.69709234531730        5.02600643159775        0.08367890348280
H           -6.06090883257670        3.65818194510677        0.99770808481595
H           -7.10545752550389        3.18163241113926       -3.15642036243195
H           -7.18613990606424        4.76759034303671       -2.39009433100961
H           -5.62079692678610        4.02257722351589       -2.71209175746853
N           -7.19381776904330       -1.27399793810415        0.24137695680639
H           -6.37928041605562       -2.29722089514133        1.43742027693162
C           -8.10367915648128       -2.35810608297549       -0.02909574084453
H           -9.14085609354357       -2.07454414832005        0.19302700445705
C           -8.02558153229860       -2.85914822285375       -1.47452336985006
C           -7.70173140910372       -3.50361742085099        0.91840550038572
H           -6.98820648631899       -3.05294619067022       -1.74054908219889
H           -8.59448614444027       -3.78049717135642       -1.56228698347477
H           -8.43196165847286       -2.11430764076968       -2.15322308088413
O           -6.64077431359662       -3.22506571222320        1.66499465914297
O           -8.28468512048061       -4.55182793156207        0.96106447825643
