42
 energy: -62.486133504400 gnorm: 0.000480792600 xtb: 6.7.1 (edcfbbe)
N           -2.00474272879538       -0.97292416716434       -2.18291385898573
H           -1.37863974202931       -1.70226056457937       -2.50042334671102
H           -1.47305453447264       -0.10839329635298       -2.13399403983578
H           -3.75710641984009       -0.32598341414912       -2.57622837487517
C           -2.56325209660381       -1.29024288597125       -0.87041152379041
H           -2.88655785446329       -2.33859292430472       -0.89743436124722
C           -1.60059424907872       -1.08944501396254        0.29756950674868
C           -3.82993474072882       -0.45560623760790       -0.70651171905025
H           -1.25280142686062       -0.05859212860104        0.32290657864871
H           -2.11618291778765       -1.29926245896903        1.22814480393862
H           -0.74199279494041       -1.75120038746522        0.20223960562364
O           -4.36576469930793       -0.03769818245650       -1.86327029068031
N           -4.29689805389612       -0.29115238090894        0.44913711715287
H           -6.45507407368852       -0.86717779852894        2.58266574604266
C           -5.50149665782456        0.45836790150447        0.74990820514816
H           -5.36758911133238        0.78183924354709        1.79290814795681
C           -5.80808392576860        1.67952233196688       -0.12068159129573
C           -6.61587443779437       -0.56570974890439        0.69371758085823
H           -4.91523031476634        2.30649247173088       -0.16740416611643
H           -6.03891835278752        1.33374603135356       -1.12621495707379
C           -6.99143025189241        2.49640403560836        0.41175295065341
O           -6.99893804059035       -1.16200768965726        1.84195561167698
H           -7.79947718212301        1.80298619810724        0.67159515737402
C           -6.61763412721197        3.30719262243245        1.65114978525497
C           -7.49780855169486        3.43315409966278       -0.68342227317326
H           -5.81583823907736        4.00455786686156        1.41706037084645
H           -7.47510812820419        3.87794216034020        2.00073190042572
H           -6.28696744701453        2.66750412793956        2.46583714911044
H           -7.82439619335892        2.86582698079663       -1.55124922975607
H           -8.33700962227407        4.02419748849706       -0.32370803360589
H           -6.70747451668080        4.11310413068824       -0.99419923882359
N           -7.07398376426254       -0.86871805569606       -0.43696441641212
H           -6.53508006962438       -1.06413110420527       -2.16905988377225
C           -8.04871093891206       -1.90344033083412       -0.65830002301290
H           -7.95672259196522       -2.73014172077701        0.05920492993791
C           -9.47259426736368       -1.34244231926342       -0.59312917717418
C           -7.79584295237300       -2.45231277744416       -2.07316395608940
H           -9.55986462397639       -0.47884272049017       -1.24923902084553
H          -10.17439232412607       -2.10743701256937       -0.91313920758534
H           -9.70611803601450       -1.03932705167665        0.42490934390649
O           -6.87684566253458       -1.78240972955659       -2.75580529008947
O           -8.38416459241053       -3.39941141442917       -2.51759128861804
