42
 energy: -62.486133515539 gnorm: 0.000479661919 xtb: 6.7.1 (edcfbbe)
N           -1.94452417857675       -2.11801359279852       -1.44489939781729
H           -0.97724693076449       -2.41478289854632       -1.39738473849809
H           -2.11531670261938       -1.77505955700182       -2.38638523317162
H           -3.71527037896163       -2.69287786751559       -1.02676506173848
C           -2.21427530533843       -1.05613632973683       -0.47754105907539
H           -1.81320437408232       -1.38812279314183        0.48866021103539
C           -1.60304783513348        0.29574735286434       -0.83821111288427
C           -3.73802706606298       -0.96210514032935       -0.31510322157610
H           -1.97686804387036        0.62753167039692       -1.80475387092332
H           -1.88673487823625        1.02870159195477       -0.09145153482608
H           -0.51770679410817        0.22489409436779       -0.88259469693641
O           -4.38312809126068       -2.07740783775344       -0.65913491680961
N           -4.18522645591365        0.11044532374017        0.15471490423795
H           -7.50716782235523        0.99058723132698        1.67147121829721
C           -5.50630428171297        0.60385103909641        0.39774165123410
H           -5.43155143598432        1.10613093200634        1.37395525583308
C           -5.74229418631788        1.66957351898471       -0.70623677219188
C           -6.70992835136136       -0.31236384534977        0.43629732687928
H           -4.81531368224662        2.23968181714307       -0.79428158568227
H           -5.88874364680633        1.12281102303700       -1.64006510839856
C           -6.90935564740499        2.64027172970350       -0.49938131649255
O           -7.74746346960760        0.16070848451912        1.24280200113220
H           -7.83626227088178        2.07763700666679       -0.34519320001018
C           -6.67554756640193        3.57193450653910        0.68978669307624
C           -7.08959304500610        3.47364802698611       -1.76821336472396
H           -5.78327277835240        4.17127744906650        0.52255730652904
H           -7.52120742342934        4.24510852662106        0.81279465340798
H           -6.54092480509272        3.02933338413834        1.62387590942257
H           -7.30411143686224        2.83304725635501       -2.61983332199322
H           -7.91446740406321        4.17236134520712       -1.65008553919814
H           -6.18620768094274        4.04085664254349       -1.98177858020081
N           -6.75651116466797       -1.39330453304316       -0.17575620160357
H           -9.08184804360734       -0.33901132423230        0.14648744526830
C           -7.82151791331650       -2.35634402216272       -0.21108234990354
H           -7.40987485100680       -3.21713898799573       -0.75024204227333
C           -8.30980618974420       -2.81482321135332        1.17024208909467
C           -9.02899999785028       -1.86257410440694       -1.02073848717158
H           -8.77469229246630       -1.99994430543079        1.72128081099088
H           -9.03255627291061       -3.61808958399659        1.04981414186504
H           -7.46299000470724       -3.18288045971159        1.74482116208670
O           -9.56080642754987       -0.70656018005333       -0.62154933000896
O           -9.48629415696935       -2.48062543347244       -1.93970578767879
