42
 energy: -62.486134088791 gnorm: 0.000280148531 xtb: 6.7.1 (edcfbbe)
N           -1.29637159340218       -1.39562604247206        0.96081597658162
H           -0.29200231920697       -1.47750666591779        0.86413917304805
H           -1.67506092671070       -2.33533610172306        1.03990760515069
H           -2.59543613111686       -0.42653470300368        1.98824382809059
C           -1.88474206420912       -0.71470500631671       -0.19046418261380
H           -1.26259955545311        0.16306712078851       -0.40650027340396
C           -1.99559655930055       -1.57236255716989       -1.45075390428888
C           -3.24490783452592       -0.18687232422257        0.24797883526859
H           -2.62150752690053       -2.44267825922215       -1.26050371743176
H           -2.44013654515872       -0.98886852280132       -2.25028757428645
H           -1.01031255465036       -1.91092392237510       -1.76500150378062
O           -3.41084535430630       -0.07915982981140        1.57174322146471
N           -4.09081615565463        0.14712862416822       -0.62404419707412
H           -5.06759767209112       -1.19423982673346       -1.65785402057814
C           -5.40642835424341        0.62581440172854       -0.24462288795159
H           -5.46203268727067        0.89657624424982        0.81458331007914
C           -5.72535941529528        1.84655043013872       -1.12616089002581
C           -6.38455416398919       -0.49650042192265       -0.51575292498228
H           -4.95069399053462        2.59357528860888       -0.93943445198498
H           -5.63808930184554        1.53581741737766       -2.17005769795553
C           -7.10288432700795        2.47268865286063       -0.89566316628577
O           -5.97095425830459       -1.43776809213209       -1.38043134921626
H           -7.86691699477144        1.70869392657980       -1.06548176441722
C           -7.25535767115763        3.00626935774330        0.52634830524285
C           -7.31930953448292        3.60152496916637       -1.90261068848536
H           -6.48678416231936        3.74710429381604        0.73817535607229
H           -8.22799275125778        3.47692278239752        0.64571626109292
H           -7.17616714111799        2.20531504027778        1.25583324054645
H           -7.23769806014407        3.23211895949201       -2.92225573139639
H           -8.30764790850730        4.03566364782161       -1.77499111616463
H           -6.57874036347249        4.38610385433104       -1.76084052755351
N           -7.52684002447025       -0.47199567003564        0.01519676593566
H           -8.85651078850054        0.47725706117916        0.82246892745998
C           -8.51408722135301       -1.49093886785057       -0.26459333536068
H           -8.53708436373270       -1.75663345440464       -1.32958146605880
C           -8.26231044000545       -2.76077668186402        0.55517597458519
C           -9.88383823549681       -0.91924514129945        0.13039520069831
H           -8.18456080800691       -2.51028527428904        1.61129445519474
H           -9.08875832271654       -3.45096690742264        0.41155021099315
H           -7.33674635395398       -3.23116006163426        0.23252103781049
O           -9.81167013654358        0.23718381834805        0.77767414408418
O          -10.91824068667835       -1.47631738245823       -0.11293943045940
