42
 energy: -62.486133514563 gnorm: 0.000479222860 xtb: 6.7.1 (edcfbbe)
N           -2.17314201915000       -2.38809168861870       -1.06510784694051
H           -1.23287928350332       -2.76284816291522       -1.08395380876216
H           -2.52108271412743       -2.38212224590245       -2.02001990216349
H           -3.84449700561699       -2.60319919372627       -0.17376898316846
C           -2.18975085345679       -1.03210839738114       -0.52098208005171
H           -1.58048829024606       -1.03868196700222        0.39216324925804
C           -1.66313449391164        0.04297899401993       -1.46932554836009
C           -3.62440053433952       -0.73798540933132       -0.09278415545433
H           -2.23982708974660        0.04139308034951       -2.39209988984229
H           -1.76725366240985        1.01637048717447       -1.00251489756234
H           -0.61589026872629       -0.13664083594170       -1.70463221888972
O           -4.38400148346901       -1.82962280472654        0.09320847303984
N           -3.96649874951004        0.45536751285913        0.09594170484417
H           -5.45842695868427       -0.19264369997358        2.61657117047989
C           -5.29329052375255        0.90491792612207        0.45646245587503
H           -5.14658143419788        1.57554744089560        1.31589902731842
C           -5.82750961669610        1.72548536661059       -0.72699594415499
C           -6.24143042837818       -0.20192023772028        0.85965460363441
H           -5.05970734267206        2.45506598721122       -0.98966069870335
H           -5.95087315329424        1.04532155171872       -1.57043843829470
C           -7.15410771028947        2.44120287831917       -0.45706735886124
O           -6.18737231226617       -0.61533102042553        2.14667097238294
H           -7.88022839048866        1.70268934805189       -0.10440618345905
C           -7.00938939173828        3.53414487463503        0.59969289445284
C           -7.67314900031720        3.04534262210636       -1.76085527466957
H           -6.23833610786144        4.24466034817544        0.30892153347855
H           -7.94714093841667        4.07371983146340        0.71108042838481
H           -6.74870405172147        3.11831171469559        1.56967194079320
H           -7.81668075874173        2.27292743911585       -2.51225048765623
H           -8.62549095601100        3.54410906156363       -1.59732672820218
H           -6.96594047347932        3.77582239698098       -2.14811590028094
N           -7.01749327046475       -0.71110420428778        0.00996904939879
H           -7.24016437667812       -1.12032130028471       -1.71232016610201
C           -7.87612772255473       -1.82657482567643        0.32544706988617
H           -7.41866291696142       -2.50585872522049        1.05550878608718
C           -9.23057957149151       -1.35131646819134        0.86106217181970
C           -8.10950641030484       -2.59160074559099       -0.98566568779363
H           -9.67832203219938       -0.64422284784430        0.16525802866188
H           -9.89181515271583       -2.20576518742212        0.97449138459943
H           -9.09854534248013       -0.86556229895621        1.82495635554958
O           -7.66292958964727       -1.94497747100116       -2.05635948767803
O           -8.65483885377536       -3.65890477850634       -1.03704448330749
