42
 energy: -62.486133513213 gnorm: 0.000479900873 xtb: 6.7.1 (edcfbbe)
N           -1.57134746330995       -1.73072508276409        0.25929723436492
H           -1.00704391559851       -1.04573651723116        0.75163656785985
H           -0.94307765262835       -2.39755805121690       -0.17384584057239
H           -3.24192338118583       -1.76082906299263        1.27889818107728
C           -2.40780731016758       -1.08120720242968       -0.75070681652493
H           -1.89779642339520       -0.28350720893239       -1.30747752063890
C           -2.93578604093589       -2.12430363150890       -1.73646668909401
C           -3.60288277642735       -0.48334833967004       -0.03844450672297
H           -3.42678212645907       -2.93033560801863       -1.19611314867711
H           -3.65872754623717       -1.65830064603509       -2.39812197733621
H           -2.12033240907813       -2.53845871623742       -2.32587126507200
O           -3.93647582490151       -1.09102838297379        1.11522147217088
N           -4.21627374466341        0.48552872235438       -0.55314597659314
H           -7.38822238679465        0.85335410543452        1.49188180825302
C           -5.42176974924813        0.97134062341764        0.07719093944693
H           -5.22868952565012        1.21734988373198        1.13370145664487
C           -5.84355308497347        2.22538254032227       -0.71152121267782
C           -6.50206273803381       -0.08407625243415        0.02998557551372
H           -4.97568723097421        2.88652257266581       -0.73655910111680
H           -6.03282087473152        1.89721369477846       -1.73452957193678
C           -7.05607772063285        3.00232072871221       -0.18963464376528
O           -7.55273006646367        0.10005506653451        0.91191144106049
H           -7.92186934907068        2.33400747784770       -0.12471525417719
C           -6.79208576561349        3.62550891455301        1.18159403841493
C           -7.40885734644430        4.10406469398882       -1.18875368334444
H           -5.96039993020473        4.32393890774565        1.11819555093975
H           -7.66930580550971        4.17054039893491        1.52398097934239
H           -6.54446964431497        2.88120401922011        1.93693967288413
H           -7.64228054380282        3.67727242163382       -2.16077521689708
H           -8.27341077993952        4.66760006529204       -0.84536253307384
H           -6.57423252137923        4.79155245351885       -1.30628526569397
N           -6.40475435176266       -1.04549294511741       -0.75986224058470
H           -8.85425309265144       -0.42961973013345       -0.22598597200968
C           -7.31298019168473       -2.15133554562729       -0.91078262030782
H           -6.80646689722722       -2.84989937239102       -1.58735125176162
C           -7.64662955831030       -2.87498959156639        0.40122722093224
C           -8.62537413094186       -1.75078300886816       -1.60113310621920
H           -8.21850052698291       -2.23897125748797        1.07332606409220
H           -8.22384535179874       -3.77052486901702        0.18502318016932
H           -6.72188556077846       -3.15803798557919        0.89914422884262
O           -9.30831393388664       -0.76327644314586       -1.02270353509075
O           -9.02840598681644       -2.30443781901722       -2.58407149543260
