42
 energy: -62.486133513518 gnorm: 0.000479532645 xtb: 6.7.1 (edcfbbe)
N           -1.18210280396709       -0.79459914269469        0.23904878885278
H           -0.55328273876148       -1.57592902741599        0.09921421378906
H           -0.86645979689946       -0.29093228245834        1.06354232168216
H           -1.98855042190975        0.59852211590304       -0.77596980383246
C           -2.55586062334094       -1.25780436626769        0.43672146588076
H           -2.75795584864308       -2.01823224398114       -0.32819340185351
C           -2.83926684290989       -1.84955171769664        1.81443128738948
C           -3.48275427962865       -0.08546821763507        0.12444430490593
H           -2.61676260674530       -1.11900403405422        2.58985102003892
H           -3.88927323134328       -2.11191552275638        1.88041969570728
H           -2.23333373004848       -2.73807852259570        1.97951271719202
O           -2.92184308229484        0.86770988483126       -0.64260469190413
N           -4.65025345596312       -0.11647047080926        0.57971605376064
H           -7.71094856966549        1.31252026242737        1.71619881872724
C           -5.70121305168307        0.84359331418473        0.34829456980139
H           -5.65857290032604        1.57627583970913        1.16794206360551
C           -5.67122891578448        1.57633842813891       -1.00541485966703
C           -6.99138683442106        0.05446293961132        0.44707632409236
H           -4.74485732381027        2.14500336031251       -1.08156700795531
H           -5.66531507702618        0.80903210995984       -1.78178949885603
C           -6.86198791728607        2.51546441895017       -1.22957805831160
O           -7.98302354531759        0.51840504498410        1.24105487139902
H           -7.79110579658194        1.97469949173673       -1.01704781285917
C           -6.78764098543746        3.74973748347632       -0.33163410285442
C           -6.89308789595244        2.95027402819583       -2.69387261231471
H           -5.87338953279729        4.30447252088380       -0.53250282395366
H           -7.63417322878658        4.40589022769215       -0.52194634613540
H           -6.79986367423606        3.48751729136305        0.72422024286011
H           -6.99524037035879        2.08779369733999       -3.34784643524581
H           -7.73068270645029        3.61976693805267       -2.87624514647948
H           -5.97374371721388        3.47111931299419       -2.95267183844714
N           -7.09220448307170       -1.00035566742595       -0.22796624122384
H           -6.14391365835082       -2.40213118599131       -0.80169771332904
C           -8.25634135479253       -1.84908136928406       -0.20140702702313
H           -8.73214626303743       -1.87650007418710        0.78765077326300
C           -9.29102749161498       -1.40328158317901       -1.23934956336404
C           -7.77687563198287       -3.26730999356725       -0.55559642896323
H           -8.81828984988177       -1.30666419645341       -2.21451341455520
H          -10.08220881570269       -2.14532379123188       -1.29829012046050
H           -9.71532938421016       -0.44362587552438       -0.95419704888340
O           -6.49330403936060       -3.32339179613973       -0.88859098491839
O           -8.49938877742272       -4.22497331808036       -0.53991168441933
