42
 energy: -62.486133504876 gnorm: 0.000480737140 xtb: 6.7.1 (edcfbbe)
N           -2.36916143691628       -1.67136605592131        0.38059826463768
H           -1.70203187404239       -1.90105630804119       -0.34592359877571
H           -2.82988133315998       -2.53333046918282        0.66213270763004
H           -2.45605920267129       -0.82659494516076        1.94622308117106
C           -3.37303023886724       -0.71676873739561       -0.10124807529156
H           -2.83097597318086        0.08188546337897       -0.62940581406813
C           -4.33099946553216       -1.39075299269759       -1.08214487584790
C           -3.94171889207847        0.00226429264652        1.15922580351881
H           -4.79014562212092       -2.26057326775010       -0.62054944185402
H           -5.11734198671060       -0.72912029005029       -1.42406211509497
H           -3.76374595600135       -1.72550442407503       -1.95205527316690
O           -3.17304439286843       -0.21211369036750        2.22923803534068
N           -4.83536961327596        0.87309666276417        1.31898341783846
H           -8.26372990515113        1.41770147519402       -0.25178985239780
C           -5.96188268948117        1.27586970710492        0.54140180104209
H           -6.48325491592838        2.00193879414896        1.18554924490061
C           -5.52690592545164        2.01602578598953       -0.74920716896283
C           -6.94024201852141        0.13996351427935        0.32197725746494
H           -4.73436454286048        2.70149126574544       -0.43810410381272
H           -5.08023261640206        1.29788983070200       -1.43744945169878
C           -6.58797963508109        2.82271633381049       -1.50985763870602
O           -8.17133958538487        0.46432386127093       -0.13328391227437
H           -7.36213939459904        2.14822366664284       -1.89515872776739
C           -7.23255892477636        3.90512736131305       -0.64378924120888
C           -5.92179956190311        3.47728571315638       -2.72203887959332
H           -6.46699787084458        4.56985225949533       -0.24998067416117
H           -7.92404714400919        4.49724474645125       -1.23949969158624
H           -7.78611753375915        3.49637637069971        0.19978885742468
H           -5.47607798590137        2.72680491664587       -3.37114139104405
H           -6.65231423362947        4.03791131711323       -3.30055703783411
H           -5.14011418413338        4.16209462652890       -2.40073124532020
N           -6.62202455941972       -1.02619446574375        0.66423208970579
H           -5.49323376284590       -2.01879465845408        1.67761638294870
C           -7.49362291891630       -2.17277247987119        0.58988013083919
H           -8.35696225338596       -2.03057865029041        1.25584329086669
C           -8.01117815360257       -2.49985883994183       -0.81198679622211
C           -6.68721171076863       -3.36080852548317        1.14583256801806
H           -7.18312092981118       -2.55375059825288       -1.51555258621284
H           -8.50911673521576       -3.46498099805246       -0.78250838103370
H           -8.71121640792076       -1.73893038661606       -1.14455798082386
O           -5.55301889096948       -3.00259961860151        1.74139762354161
O           -7.04098891698128       -4.50238303731965        1.04646035064391
