42
 energy: -62.486133512351 gnorm: 0.000480033794 xtb: 6.7.1 (edcfbbe)
N           -1.18017781224155       -0.93138118026694        0.93644175725668
H           -0.20433763987895       -1.10689276052909        0.73074047487209
H           -1.53742929709931       -1.73891750707897        1.43975577651913
H           -2.32239407895818        0.44186530842261        1.66321679459027
C           -1.94893311081722       -0.73208716999865       -0.29066561065620
H           -1.38995445589826       -0.01980232677327       -0.91189421862255
C           -2.20750444351006       -2.00544210173172       -1.09388489180425
C           -3.24670420371405       -0.04335392443593        0.10753843455023
H           -2.79532451344847       -2.70710224351374       -0.50591695100303
H           -2.76034891830767       -1.76567219346774       -1.99565296048349
H           -1.26532703594445       -2.47541331882578       -1.36944417463553
O           -3.19857151468808        0.62517991057265        1.26793870061859
N           -4.25051076697410       -0.11233705452673       -0.64863614137477
H           -5.47029145550214       -0.89929628162623       -2.09690585042162
C           -5.49611824611241        0.53903090516831       -0.29442878288382
H           -5.55559169714477        0.76276813618719        0.77518837363134
C           -5.64654036941237        1.83382779987383       -1.11126276789706
C           -6.58454263106043       -0.43869733196187       -0.66787554707290
H           -4.82872104607200        2.50235403490685       -0.83338529349028
H           -5.52880687974409        1.58626781947004       -2.16998887681475
C           -6.98705037447476        2.54600466616649       -0.90416825178639
O           -6.38023081627973       -1.10010181153628       -1.81683756983275
H           -7.79560466627068        1.83993764002247       -1.12067238183441
C           -7.14810300168944        3.04223678757391        0.53014089475775
C           -7.09340197759933        3.71809484072255       -1.87867185747488
H           -6.32752293502071        3.70548711353474        0.79592328911776
H           -8.08092014069957        3.59078500825242        0.63294730097648
H           -7.16701056941992        2.21306348709430        1.23125366528233
H           -7.00855885642529        3.37634263925233       -2.90786734414363
H           -8.05119733637497        4.21918873759856       -1.76376006771377
H           -6.30287286161388        4.44159488319810       -1.68985825087281
N           -7.57208125905214       -0.60843027781249        0.09537554245241
H           -8.67972323269787        0.09606210909319        1.34058746697013
C           -8.63959092320836       -1.52610578654082       -0.24032270693035
H           -8.88192412427079       -1.49971865321400       -1.31044680806941
C           -8.28594527585660       -2.96472506449478        0.14996492518448
C           -9.88035742869324       -1.09214542381605        0.55459127822842
H           -7.99203067245692       -3.00303481294210        1.19694744348813
H           -9.15406962185945       -3.60021828505211       -0.00054180943330
H           -7.46299627571532       -3.32285856167070       -0.46367663059157
O           -9.63461456845600       -0.13165067316513        1.43734224239102
O          -10.96225422512463       -1.58673291098616        0.39980637990251
