42
 energy: -62.486133509387 gnorm: 0.000480312326 xtb: 6.7.1 (edcfbbe)
N           -2.28633686010266       -0.75202533235957        1.87463265726012
H           -1.97014592331466        0.13951939085578        2.24098723592057
H           -1.49667820715927       -1.38633401033880        1.86392034257630
H           -4.14140059455434       -0.88828688508181        2.38477403995177
C           -2.84855719714874       -0.59620233177282        0.53462557826707
H           -2.29492134620990        0.10298976001404       -0.10646293602069
C           -2.92629706285360       -1.96178333879382       -0.15106119279893
C           -4.26982289184804       -0.08581112896474        0.69650062085254
H           -3.45413411341930       -2.67077674808057        0.48304560288971
H           -3.45777743720132       -1.86688478884162       -1.09297381484955
H           -1.92631249007010       -2.34323437707427       -0.34716201640842
O           -4.84918558933481       -0.46142021014423        1.85374487689887
N           -4.75524192925170        0.65251671727822       -0.19368525156637
H           -8.50225514951705        1.32859855353340       -0.40873196825399
C           -6.12973631670525        1.06831759944331       -0.27313506601418
H           -6.31650442227636        1.82473244514551        0.51006157015785
C           -6.34281181014370        1.70968133470385       -1.66437275183858
C           -7.16604651192314       -0.00932563909275       -0.02918453054503
H           -5.44483663732865        1.49978051673384       -2.24605168590341
H           -7.18027132958091        1.23005080426312       -2.17755559502655
C           -6.56925075256172        3.22553133574888       -1.62302014356485
O           -8.45403679158680        0.39143357426503       -0.18278634931448
H           -7.35327614059781        3.45481989724693       -0.88785505004955
C           -5.29112389893921        3.94830934262055       -1.20728712623028
C           -7.03809607772379        3.72271105007687       -2.98894362753733
H           -4.52250412565733        3.80865595545489       -1.96332754455284
H           -5.47413835251514        5.01438015299450       -1.09215630559545
H           -4.91239968861431        3.55702023913610       -0.26691865653945
H           -7.97466521010055        3.24907683965443       -3.27675159936138
H           -7.19171896573956        4.79905623078865       -2.96980199447119
H           -6.29266519041403        3.49602035495343       -3.74752181438334
N           -6.85899391322785       -1.17695293800652        0.31189678262700
H           -5.75459277247275       -2.16042572422483        1.42309149572221
C           -7.85778326127643       -2.20165776560265        0.51299393519206
H           -8.69893293595592       -1.82936837309764        1.11501307109917
C           -8.40200683080005       -2.73495597937947       -0.81460811442705
C           -7.19662846589342       -3.35010500312223        1.28970968271584
H           -7.57565999418068       -3.02026179469683       -1.46236405295083
H           -9.01847983476276       -3.60774554805802       -0.61906405531264
H           -8.99687994829870       -1.97248748494983       -1.31054820468846
O           -5.96471315480361       -3.08473684892622        1.70313125356942
O           -7.74837111812422       -4.39444544907633        1.50413720649321
