42
 energy: -62.486143125487 gnorm: 0.000732952932 xtb: 6.7.1 (edcfbbe)
N           -1.93517177656625       -1.34565914557304       -1.80239130685681
H           -1.25698079554027       -2.08868147326433       -1.91740278278656
H           -1.44148337242940       -0.46297645055514       -1.89744293856103
H           -3.67355919496699       -0.78853330282652       -2.41651919236374
C           -2.57081877419661       -1.41607301369618       -0.48865158015271
H           -2.87927730683201       -2.45764514769277       -0.33247941436886
C           -1.68098405518494       -0.97538759456430        0.67170917386119
C           -3.85194528332841       -0.58855682649315       -0.56007974082373
H           -1.34151087692751        0.04682739324158        0.51371224126442
H           -2.25050919301873       -1.00668936677522        1.59452372040839
H           -0.81422802295059       -1.62795709158296        0.75753587047803
O           -4.31280612528724       -0.38214352897491       -1.79635492111240
N           -4.37055124262633       -0.19883848826496        0.51872213524634
H           -6.70318521751402       -0.94849758821191        2.12412130056522
C           -5.61212100549362        0.55100196342760        0.59077283369721
H           -5.69594390709731        0.85033098396604        1.64550290729171
C           -5.65749651554544        1.79356943892806       -0.30384260450559
C           -6.73745211764120       -0.40059996720287        0.25731017322800
H           -4.72249090606335        2.34411379848572       -0.18019983828416
H           -5.72995344691000        1.44750825631439       -1.33346934395685
C           -6.84607097034066        2.70822682606361        0.01123336672746
O           -7.22261181293528       -1.12871730334045        1.33098289886549
H           -7.73774831574669        2.08504949294636        0.14079026832425
C           -6.61663941347489        3.51797938725617        1.28615155783882
C           -7.09318178534344        3.65088199035605       -1.16436880347187
H           -5.75247646729496        4.16888169766503        1.16792684330463
H           -7.48421267723899        4.13771663111893        1.50116812077588
H           -6.44303655247030        2.87377453365829        2.14490734692438
H           -7.31983451557084        3.08322139173745       -2.06288890118449
H           -7.93147429256872        4.31121546841481       -0.95462213399053
H           -6.21251858044799        4.26180054225594       -1.35217976058144
N           -7.11092452549500       -0.54826138686541       -0.92421841471797
H           -8.95901815330806       -1.09468684167541        0.78813611593329
C           -8.08265339404903       -1.48149807377613       -1.42785713929281
H           -8.01414534029840       -1.40764381136679       -2.51936265191029
C           -7.84126596639008       -2.93798864807455       -1.00681956474000
C           -9.52051683935862       -1.09392837029589       -1.05133995790416
H           -7.96027078915033       -3.06819942415746        0.06669806190879
H           -8.54632432358400       -3.58550586753117       -1.52214450021302
H           -6.82879533666903       -3.22720765141167       -1.28023895545440
O           -9.75809763974161       -0.93830600470873        0.25113329774965
O          -10.38590442167577       -0.96394305312695       -1.86922829345046
