42
 energy: -62.486133504981 gnorm: 0.000480561143 xtb: 6.7.1 (edcfbbe)
N           -2.27250315249374       -2.56247278856220       -0.11955904617196
H           -1.32314495386566       -2.91402863463518       -0.15859924370726
H           -2.75915484738318       -2.90396293542960       -0.94449967672430
H           -3.79424728313033       -2.39124857582242        1.03554466115890
C           -2.28527657611120       -1.09973749595517       -0.12054832264039
H           -1.59058801592510       -0.76896341643582        0.66240238948137
C           -1.89454212834113       -0.46096724447326       -1.45019580269275
C           -3.68296217908205       -0.66928880619723        0.30353985899073
H           -2.57322284757296       -0.79121822856678       -2.23322240437779
H           -1.97310321313955        0.61728791969246       -1.36684450436926
H           -0.87583198960251       -0.73296901067792       -1.72043089903071
O           -4.34661594767181       -1.58276014223360        1.03644044368926
N           -4.08217569832868        0.48369319367069        0.01054892987506
H           -7.09514417338217        0.64121071002161        2.04107860473771
C           -5.40860489545439        0.97109254781688        0.29331666925681
H           -5.36861351144101        1.49437903756448        1.26113360674971
C           -5.75484353583393        1.97442077978470       -0.82124795476816
C           -6.47808140476589       -0.09592986092831        0.34425381423730
H           -4.93151430405019        2.68607107286967       -0.89129995455486
H           -5.79065632939645        1.40461158114412       -1.75030270593113
C           -7.07853203485379        2.71985586746335       -0.62535924771355
O           -7.36612621286860       -0.02761101138408        1.40121996816892
H           -7.87055328938313        1.99439408939864       -0.40763955478517
C           -6.99983791190428        3.72827137144949        0.51998486606006
C           -7.44963805736687        3.43977219479732       -1.92044293209359
H           -6.23083874049961        4.46988961663068        0.31397154034549
H           -7.95083180411590        4.24389029373526        0.63386890733948
H           -6.76331744174200        3.25012066904759        1.46820535717714
H           -7.56976381375211        2.72609887821379       -2.73136950289817
H           -8.38452561463263        3.98212453606628       -1.80106417662513
H           -6.67196267857891        4.14869601092952       -2.19595425639281
N           -6.53488580171351       -0.94284015399588       -0.57319449940036
H           -8.85182517344176       -0.40263648771053        0.42130161454241
C           -7.47668133374488       -2.02327965489852       -0.70431096165838
H           -7.09555079163437       -2.64127019702917       -1.52588659567067
C           -7.63243821676253       -2.89389138985033        0.55001234496907
C           -8.86247328675152       -1.52405220492662       -1.13796452842369
H           -8.11312159574845       -2.34826446867633        1.35893655878127
H           -8.23003402263439       -3.76999225286413        0.31058533258280
H           -6.64889191919021       -3.21077739952525        0.88863791928798
O           -9.42450474803453       -0.61616157139249       -0.33948400511069
O           -9.41902974458099       -1.93358238195271       -2.11662715593552
