42
 energy: -62.486133495152 gnorm: 0.000483253015 xtb: 6.7.1 (edcfbbe)
N           -1.06174693196883       -1.28758854997007       -0.11683956795283
H           -0.61814145624170       -2.11407692716777       -0.49761054331980
H           -1.01709704629314       -1.35145630899315        0.89694727512525
H           -1.06171397859354        0.57836706704471       -0.35271923016229
C           -2.45837991045702       -1.19148729673166       -0.53795710942458
H           -2.47992066000382       -1.32536427449880       -1.62842840373091
C           -3.36779493444917       -2.22897061095564        0.11819999503271
C           -2.90355968248035        0.26526914822283       -0.26865317436689
H           -3.41372933783730       -2.06706946533860        1.19283940368695
H           -4.37570889532062       -2.18006025359050       -0.27715943680405
H           -2.97596223487572       -3.22646820767690       -0.07375863303340
O           -1.86837162708098        1.12624161214268       -0.25818390424824
N           -4.04853679279386        0.63246296510618        0.00342432728057
H           -5.00375435469645       -0.47562207630073       -2.03530468106358
C           -5.41549692556104        0.88232786238970       -0.08492738506150
H           -5.73709853213861        1.05380703607886        0.95072920460914
C           -5.72582007893456        2.16018702947704       -0.87927276250322
C           -6.23382272258225       -0.30148454727791       -0.57876440774559
H           -5.01176717170724        2.91244038146201       -0.54128152501643
H           -5.54814338496283        1.98886731949353       -1.94602961807560
C           -7.15094176239457        2.68244594034531       -0.67071231692285
O           -5.79305104955712       -0.92398805433312       -1.69890223377901
H           -7.86353829557395        1.89711544554236       -0.94523125003215
C           -7.40884579452889        3.08922566495986        0.77976434211344
C           -7.36034566845858        3.89095084090091       -1.58084681871859
H           -6.68379819388466        3.83605724896703        1.09686999317947
H           -8.40398037805825        3.51785821632412        0.87069595681346
H           -7.35202616379870        2.24037402051077        1.45583032677175
H           -7.19905827923742        3.62392626867535       -2.62283259287422
H           -8.36959713682014        4.27933211413300       -1.47526913743806
H           -6.65774212860874        4.67837100708634       -1.31545309139212
N           -7.29814500939570       -0.60601391069216        0.01072883799298
H           -8.58765302903581       -0.08111178694924        1.13391140929931
C           -8.19749611738343       -1.63614078606492       -0.46073919911330
H           -8.37799891377008       -1.54866736640713       -1.54090442269589
C           -7.67234679162550       -3.04033065852063       -0.15367457320305
C           -9.53947344823728       -1.42377652206010        0.26477619636504
H           -7.39225307413675       -3.10222088661676        0.89659577789460
H           -8.44933447426942       -3.77096565488365       -0.36139662695984
H           -6.80239609789474       -3.25401349170816       -0.77040926211983
O           -9.50288793351016       -0.45091917923598        1.16586958073827
O          -10.51671920877900       -2.08032882889355        0.03528460072149
