42
 energy: -62.486133509582 gnorm: 0.000480866497 xtb: 6.7.1 (edcfbbe)
N           -1.98965496524981       -1.62367585670571        1.33678900993080
H           -1.01651568417625       -1.90174054018173        1.31181321307361
H           -2.54241108818997       -2.45767858902941        1.51533599910951
H           -3.15970268170816       -0.34618821895371        2.14266093092907
C           -2.39770115556942       -1.02015104762901        0.06951046054891
H           -1.61389908781230       -0.31106932907460       -0.22508854077575
C           -2.62652168182613       -2.01810092076610       -1.06430817413635
C           -3.65353392402463       -0.20223194485868        0.34226721377819
H           -3.39545443837343       -2.73438525464623       -0.78134112088710
H           -2.96174026754251       -1.48767607816218       -1.94883903632543
H           -1.70750008628214       -2.55499370843103       -1.29130603964375
O           -3.87312276699349        0.08861466544958        1.63215861324143
N           -4.37530788480606        0.15981812464437       -0.62299727426143
H           -6.41081882348578        0.15194125201487       -2.52290563186325
C           -5.58078412588654        0.93730113400003       -0.38995287381026
H           -5.65274281266005        1.25655157755776        0.65582142322914
C           -5.59077162853565        2.15258386715607       -1.32231051100830
C           -6.70388953038568       -0.04041660408098       -0.65165511584967
H           -4.81237565449846        2.83717159746815       -0.97902199403535
H           -5.30554966520862        1.83750275000187       -2.33108279583840
C           -6.93366011897164        2.89244943509143       -1.36524497489011
O           -7.00230707982581       -0.33014313717899       -1.93085344783084
H           -7.71410112569614        2.20434851548742       -1.70961636025906
C           -7.33210470419034        3.41090330548694        0.01464779229337
C           -6.84370422942734        4.05050842111968       -2.35807206309388
H           -6.53982625112036        4.02831963639471        0.43249946615032
H           -8.23379115983804        4.01442360051379       -0.05919036202241
H           -7.53126120889881        2.58922831959078        0.69741016239517
H           -6.57399483368638        3.69401718400433       -3.35008486835479
H           -7.79883473574243        4.56498700634986       -2.42897458187942
H           -6.09181126065017        4.76732269131483       -2.03516737049036
N           -7.22679401244730       -0.62603110159197        0.33304204592927
H           -7.50846460622418       -0.73046518158072        2.11613976834882
C           -8.22910494659563       -1.65578971102110        0.17562772993691
H           -9.01132399101127       -1.35788214395150       -0.53367554593727
C           -7.61662323616885       -2.98088854531334       -0.29179778307260
C           -8.86793217110170       -1.87729270065372        1.55531601026495
H           -6.81204049561005       -3.27251881207535        0.38072237376464
H           -8.38228300521068       -3.75143732105954       -0.28617102163447
H           -7.21776038545091       -2.87145750799134       -1.29698005057153
O           -8.23987474093378       -1.24244461381319        2.53686307561365
O           -9.82859500054460       -2.57536003017489        1.72694731230761
