42
 energy: -62.486133510798 gnorm: 0.000480789909 xtb: 6.7.1 (edcfbbe)
N           -0.77840432867296       -1.19786297443745        0.17366224150090
H           -0.13393118796981       -0.71419961201617        0.79206577768517
H           -0.25846291751892       -1.53406558410914       -0.63895963439919
H           -2.11709874095256       -2.38330966514897        0.77410536169833
C           -1.88766264362783       -0.32076599287904       -0.23764811743900
H           -1.75779416482248        0.69557950053922        0.13391793059984
C           -2.05650789855643       -0.29711604991393       -1.76589311462577
C           -3.18738726810179       -0.88789495801385        0.35840855619823
H           -2.22801928511562       -1.31470963230933       -2.13894417002214
H           -2.90963430423177        0.30962965127082       -2.03545505446790
H           -1.16914566336181        0.12026582922991       -2.24866694896941
O           -3.07512037168028       -2.17039612033052        0.81406037305867
N           -4.24647664007686       -0.26366233016740        0.41352841890537
H           -5.19095426224158       -2.01912973255341        0.68878721026548
C           -5.52347317751286        0.29918954114634        0.36362943392391
H           -5.69058919471477        0.77915261754774        1.33692495883267
C           -5.56748146624361        1.38236503795877       -0.73413593226772
C           -6.57309595614175       -0.80814875985252        0.22107799627660
H           -4.70691180307317        2.02837955932374       -0.54495219249793
H           -5.41235505903287        0.89445915404406       -1.69809000563593
C           -6.82784772641111        2.25271003796271       -0.82335547825346
O           -6.14373463339025       -2.04923105038313        0.47406969370269
H           -7.60790186072578        1.67610748451347       -1.32345453472300
C           -7.34320828295178        2.69124444566246        0.54423027396765
C           -6.51962118023008        3.47733940664797       -1.68507939949439
H           -6.55913305667635        3.19221459859152        1.11023969190241
H           -8.16997692724325        3.38829772073059        0.42224409133988
H           -7.70060681796930        1.83674471414243        1.11251158057297
H           -6.10200640236398        3.17730878756396       -2.64259921824813
H           -7.42514901718487        4.04768216286776       -1.87209216980900
H           -5.80306753843055        4.12647183911838       -1.18485195108738
N           -7.75801096776180       -0.53539617812284       -0.11415917255948
H           -9.13269560781939        0.59458284404384       -0.71606803033051
C           -8.73102944783865       -1.59943449555790       -0.28545854420465
H           -8.28145128458245       -2.50533825117481       -0.72127725255025
C           -9.39702018701572       -1.97059658137722        1.04995869038434
C           -9.81946841466403       -1.06753625115130       -1.21954833318459
H           -9.83005115821793       -1.08191067893574        1.51670044687714
H          -10.18348362892806       -2.69904486566858        0.86866358897020
H           -8.65827479215873       -2.40299674957472        1.72473291024147
O           -9.87147585449564        0.26165874766769       -1.27213721951213
O          -10.57047070146002       -1.77742932104614       -1.81860142333162
