42
 energy: -62.486133516454 gnorm: 0.000479362091 xtb: 6.7.1 (edcfbbe)
N           -0.91557607825054       -1.04676208338251        0.38291820284154
H            0.04383053766015       -0.98976079089713        0.06463841295809
H           -1.11295935330973       -2.02446664133123        0.57830852441607
H           -2.07254205953083       -0.16528067307560        1.62973187706275
C           -1.83780181558262       -0.54553806745019       -0.63573656534411
H           -1.40983727577916        0.37949060195792       -1.04151437877337
C           -2.11649938046643       -1.51523284173103       -1.78202791674061
C           -3.12466534233973       -0.14887682079033        0.07314736998363
H           -2.50077744485422       -2.45694089254592       -1.39401573258716
H           -2.86488530909074       -1.08557599430327       -2.43896328135365
H           -1.20704142173329       -1.71061267761578       -2.34624267883834
O           -3.00761017895734        0.02126871758832        1.40883957619062
N           -4.18210250243248       -0.00866419289563       -0.58967184064665
H           -5.03722496441788       -1.71278455994882        0.96511941525802
C           -5.41517114179810        0.44422578072477        0.02267539571173
H           -5.26199012564196        0.72600759658793        1.07739094249654
C           -5.93809842713188        1.64215911027492       -0.77459797511920
C           -6.36596270205691       -0.73245199188046       -0.00250038074745
H           -5.10515624657217        2.33000460696697       -0.93340852066721
H           -6.25663860863633        1.27411214585307       -1.74944096039325
C           -7.08873943351959        2.38598838876250       -0.08665551248894
O           -5.93194160733151       -1.84728544939334        0.62635283494362
H           -7.78655986700093        1.64720742241941        0.31748026673238
C           -6.57802260137007        3.25835942324520        1.05891152562378
C           -7.82917849987424        3.25146586594002       -1.10467175764184
H           -5.89826641736698        4.01943588723078        0.68065856814677
H           -7.40815687568880        3.75770178164588        1.55321539610270
H           -6.04975068707327        2.66766787935953        1.80322584852969
H           -8.24983651414397        2.64334184150439       -1.90151241915643
H           -8.64117113247647        3.79168660471656       -0.62374602290611
H           -7.15073179618322        3.97784763089655       -1.54729430411099
N           -7.48277412141067       -0.65156426960992       -0.57158813364305
H           -8.57268944408123        0.22377194577767       -1.70922441852460
C           -8.41092717204332       -1.75640595802178       -0.62581154138987
H           -7.90932637243331       -2.70068853612176       -0.87177012139419
C           -9.16850190206390       -1.92821076873024        0.69530084456640
C           -9.42908924348297       -1.43048288176928       -1.73078614899185
H           -9.63764751178535       -0.98839028809821        0.97999396849431
H           -9.93712971520027       -2.68579038389034        0.57139603438330
H           -8.48135845601332       -2.23444182504315        1.48008358243353
O           -9.33466047217503       -0.18710664160962       -2.18424312576986
O          -10.24102157809251       -2.22045384710794       -2.12502979868673
