42
 energy: -62.486131008395 gnorm: 0.000512904109 xtb: 6.7.1 (edcfbbe)
N           -1.00656105666333       -0.72643153131701        0.43151096602116
H           -0.10667413749454       -0.93734874929002        0.01770695420642
H           -1.18272777991433       -1.42537508695170        1.14826764120198
H           -1.98159196702757        0.78340510083681        1.13495790234357
C           -2.06801790174327       -0.76723209273195       -0.57427183944955
H           -1.70995343510618       -0.21080549386636       -1.44967195309467
C           -2.48723991325440       -2.16936691038805       -1.00915378205366
C           -3.24818794967051        0.01813937795856       -0.02106828948768
H           -2.79948821114234       -2.75325174981738       -0.14529539296041
H           -3.32603811469385       -2.09368921083000       -1.69243523662739
H           -1.66169321434829       -2.67991508435125       -1.50071871306694
O           -2.93707151335002        0.89321711180248        0.95748360263726
N           -4.39690900095097       -0.17238675259021       -0.49193555136180
H           -5.77337178816887       -0.95275500681687        1.73782538021184
C           -5.53442019068913        0.60875868921418       -0.04443386778423
H           -5.33540731638368        1.08412062287200        0.92938991170453
C           -5.83905448999134        1.68199885556415       -1.09350808246144
C           -6.66409112249289       -0.38100873458918        0.10950397504192
H           -4.93647923358006        2.28287710055097       -1.22688702345505
H           -6.05374748339116        1.16427782579691       -2.02760396549917
C           -7.01547274764899        2.59682107293992       -0.74081017451318
O           -6.59238632144417       -1.14213114375040        1.26425701897298
H           -7.89683974999980        1.97264564636643       -0.56973204679717
C           -6.74259184716584        3.42982931570374        0.50999783715726
C           -7.30100417430343        3.51830844536290       -1.92531473486931
H           -5.81406092362391        3.98743151066598        0.40188529442019
H           -7.55130601340761        4.13914720223965        0.66985798534880
H           -6.66995419151380        2.80606315536242        1.39733355532090
H           -7.51919873555891        2.93570066317154       -2.81633134449438
H           -8.15701124387784        4.15458111738444       -1.71422133491350
H           -6.44191985445145        4.15464233923005       -2.12917283903462
N           -7.54262572478316       -0.50136669967636       -0.76731468225666
H           -8.38358906968502       -1.15069137880981        1.59013271106553
C           -8.63311811971468       -1.44080301015407       -0.79290806575176
H           -9.08139036080810       -1.33558450143397       -1.78771368100625
C           -8.21701438931797       -2.90287767997561       -0.58129431471204
C           -9.73284034356202       -1.09103984057092        0.22130736484887
H           -7.82174135695731       -3.06441113563157        0.41915693933839
H           -9.07836318012895       -3.54938262640283       -0.73015581811578
H           -7.44705624186523       -3.16419133143009       -1.30352364109604
O           -9.34056608029028       -0.99121374314953        1.49156602297742
O          -10.87741476489745       -0.94073133020105       -0.09772952982613
