42
 energy: -62.486133512725 gnorm: 0.000480120900 xtb: 6.7.1 (edcfbbe)
N           -2.07449983457929       -0.47414704509871       -1.58540331945430
H           -2.03477595354935        0.50825998204901       -1.83764806213000
H           -1.98196057026847       -1.01737063461909       -2.43659431288581
H           -1.44130812104294       -0.61344566777827        0.26489590991395
C           -3.34253630921538       -0.78398849190497       -0.91703304021009
H           -4.22877677916691       -0.40120315067868       -1.43457061035483
C           -3.46149441552472       -2.30274885338439       -0.77617080611050
C           -3.24426938235730       -0.18520516543829        0.48659503517464
H           -2.59041504749811       -2.70389029950239       -0.26178266260235
H           -4.35243288975160       -2.54899002088268       -0.20849965294396
H           -3.53275749030374       -2.76609340944711       -1.75796737863436
O           -2.01528047818447       -0.32058894588800        1.00193055270632
N           -4.09473958989674        0.38454533209477        1.21836140646418
H           -7.45735859314521        0.05261379178231        2.12616587057835
C           -5.45127538970946        0.76814079244716        0.97335026826051
H           -5.79590229970295        1.13025518502422        1.95446183738034
C           -5.50699794321687        1.94806710034375       -0.02387027292602
C           -6.42675524096428       -0.29304927135785        0.50733742313554
H           -4.75731175019739        2.67897213456591        0.28491374474686
H           -5.22653878938816        1.56231145713523       -1.00456161791758
C           -6.87836244130637        2.62593351395533       -0.12721312722909
O           -7.53119189545460       -0.46987681132000        1.31745004669210
H           -7.64854334032495        1.85821314711201       -0.26301519814738
C           -7.20557024108397        3.44430927906268        1.12031411162887
C           -6.90163063021539        3.53119217174657       -1.35787339409838
H           -6.46047170934736        4.22387382919645        1.26309703925497
H           -8.17948607541199        3.91640557939082        1.01374944907989
H           -7.22758836388147        2.82896280115611        2.01672208260400
H           -6.74250760639011        2.95062410341384       -2.26331447548410
H           -7.86180004774312        4.03428518708535       -1.44109814341466
H           -6.12163419962998        4.28641453197093       -1.28808319505442
N           -6.23805238309235       -0.93081123488441       -0.55141730795414
H           -8.77114032645650       -0.59795398921275       -0.02900962428291
C           -7.09560795955537       -1.93349893305871       -1.13247621313713
H           -6.51442510382354       -2.36813954853649       -1.95412110444927
C           -7.53791155999869       -3.05458611937626       -0.18409476124614
C           -8.33691552350244       -1.28855168071613       -1.77024670629993
H           -8.17200342906572       -2.68107210888277        0.61665551908839
H           -8.08712386314898       -3.80429249566140       -0.74841496853347
H           -6.66266495815067       -3.52281586656470        0.26160654596216
O           -9.11732567178800       -0.59642321897067       -0.94113559061366
O           -8.59684720882733       -1.40635885400941       -2.93295525239477
