42
 energy: -62.486133510458 gnorm: 0.000479653982 xtb: 6.7.1 (edcfbbe)
N           -1.59627998580031       -2.17776828817250        0.41546048650011
H           -1.78650656912665       -2.44316669693661        1.37625831848645
H           -0.60662249320877       -2.31208799565849        0.24505451830165
H           -3.23197892261145       -2.58877972446848       -0.45929967890721
C           -1.98221634296501       -0.78805118699144        0.17591418592177
H           -1.74902220559376       -0.11066389713512        1.00787711512969
C           -1.30304505014763       -0.27202881388153       -1.09293969167546
C           -3.48990048167980       -0.77388603880763       -0.04244177686735
H           -1.52317555204490       -0.92960504399004       -1.93161758509619
H           -1.66530530617678        0.72635432823544       -1.31860951152991
H           -0.22463350479160       -0.23193093250845       -0.95523553931734
O           -3.97477553338743       -1.94986430649330       -0.51119339334180
N           -4.11365164815368        0.28600420076465        0.17458367105369
H           -5.46287720239517       -1.30307129254478       -1.59758200983973
C           -5.50733748552261        0.60951713848693        0.04797267496471
H           -5.78351363015107        1.04710788319099        1.01271433886550
C           -5.59929607192583        1.70494574382142       -1.04007135073676
C           -6.54228739270867       -0.45177315173940       -0.26788721908145
H           -4.82835496895577        2.44458681687032       -0.81722048514286
H           -5.35339401206743        1.24889656076334       -2.00361910037240
C           -6.96149556606753        2.39711873947507       -1.14642156137234
O           -6.39311277754574       -1.24905508639352       -1.33604474447262
H           -7.73826074878851        1.63622009729517       -1.27342491724438
C           -7.28171244333090        3.21373998215812        0.10215908030979
C           -6.96723500279952        3.30330424678146       -2.37724646612689
H           -6.51102388143610        3.96267440459677        0.27254096648625
H           -8.23482864016433        3.72216546002938       -0.01974192588621
H           -7.35145097474121        2.57866170072698        0.98045926443983
H           -6.78002976475652        2.73045077339354       -3.28284306132270
H           -7.93056361975028        3.79635062223194       -2.47955104821560
H           -6.19799476311240        4.06778848533555       -2.28841306163320
N           -7.59424446799810       -0.43968718114761        0.43216880236168
H           -8.70761787397983        0.45787916584996        1.53199333071600
C           -8.69947567248957       -1.32954817042729        0.15077816056961
H           -8.88610910865430       -1.42606811272692       -0.92641700952852
C           -8.45906655733232       -2.72469611448626        0.73782091145908
C           -9.94725661179812       -0.72959383362117        0.81450749838830
H           -8.23007707206089       -2.64539514985969        1.79875990866204
H           -9.35390083099325       -3.32715649556804        0.60973016388956
H           -7.62442343296903       -3.20120035973890        0.22947867369161
O           -9.67998744888762        0.30579207640000        1.60196169774434
O          -11.05214964966046       -1.16650620543669        0.64856210723194
