42
 energy: -62.486133526926 gnorm: 0.000477733178 xtb: 6.7.1 (edcfbbe)
N           -0.79986405678276       -0.14951627879469        0.10745454983231
H           -0.57454493787073        0.80699706719088       -0.14552799843065
H            0.03589040688115       -0.70916008453249       -0.01409038996141
H           -2.15212163814370        0.10815942610395        1.43568115433729
C           -1.89560089175268       -0.65940088246486       -0.71458477152082
H           -1.85666999473759       -0.33147485734254       -1.76230437153390
C           -1.91043591955019       -2.18922953630725       -0.67497350177711
C           -3.18878607154962       -0.14545707191428       -0.09966977007081
H           -2.01473685586309       -2.54116081283560        0.34987190644434
H           -2.73770644874739       -2.56462269092612       -1.27111261518462
H           -0.98339270441206       -2.58484657849424       -1.08454613956734
O           -3.09971208023597        0.18998810492391        1.19733825286164
N           -4.22839080882829       -0.09796173403309       -0.80816153437944
H           -4.95856235506584       -1.98634750223145       -0.21750041695660
C           -5.49404792764568        0.34304208495429       -0.25845465669084
H           -5.38500368822739        0.63297624105830        0.79891754074987
C           -6.00959979730190        1.54009944571741       -1.06896177458509
C           -6.45816106364603       -0.82587298100531       -0.29386194411294
H           -5.14888961411719        2.13857222538916       -1.37436890577188
H           -6.48622450078889        1.15880401879399       -1.97193536266004
C           -6.99008693969333        2.42282428573421       -0.28732581293688
O           -5.92268143720374       -2.05327098950899       -0.14496225555292
H           -7.66143609259767        1.77192012783002        0.27986843445891
C           -6.24848278890359        3.33348438430212        0.68984793481603
C           -7.82036503251951        3.26531251797755       -1.25366539374607
H           -5.60941075637876        4.02856314947154        0.14833191416494
H           -6.95557651882843        3.91022914118199        1.28150434899524
H           -5.62654514013573        2.75870844341633        1.37197733387448
H           -8.39777215265286        2.63464735424357       -1.92481534949679
H           -8.51149544794084        3.90083499773219       -0.70526875365166
H           -7.17206149735757        3.90227124032219       -1.85214205509072
N           -7.69002039676047       -0.62305773542141       -0.45304172188675
H           -9.00937536744144        0.44657427541315       -1.09641754848287
C           -8.64224194168415       -1.70899100398067       -0.48730000124995
H           -8.25315762625836       -2.58061299499026       -1.02939105221081
C           -9.04538603372722       -2.14570783118430        0.92522862339934
C           -9.89344191203243       -1.19212031399262       -1.21337576286550
H           -9.38822775798662       -1.28521590979260        1.49644889885259
H           -9.84921426648019       -2.87357172824021        0.86017447598157
H           -8.19297084432361       -2.59132055752809        1.43210054522656
O           -9.87449116361926        0.11646093999367       -1.43607523629646
O          -10.80518919109399       -1.90357523582646       -1.53197577979989
