42
 energy: -62.486133509710 gnorm: 0.000480713459 xtb: 6.7.1 (edcfbbe)
N           -1.31500058059513       -0.67136869650355        0.83695155428680
H           -0.40998231013656       -1.06462749606030        0.60808293171850
H           -1.63458288348522       -1.12043335987646        1.69131701406921
H           -2.23102127617992        1.03000798451500        1.01230678178305
C           -2.27746063392943       -0.91856912209964       -0.23634566104966
H           -1.79860180908291       -0.61216473896093       -1.17606866047444
C           -2.74629239051899       -2.36638635307237       -0.35700971987039
C           -3.44681238066040        0.02702496101710       -0.00870593523037
H           -3.19575690949317       -2.69194805009803        0.57855231745552
H           -3.49738266436167       -2.43847376235974       -1.13587320542656
H           -1.90973287904713       -3.01958674552622       -0.59731677991430
O           -3.15285680768961        1.13036723674056        0.70121341174771
N           -4.57986102864220       -0.25670272527600       -0.47294079110964
H           -6.62766515356600        0.18287826593176       -2.49873660453613
C           -5.70569773874449        0.64214573760993       -0.28875943997521
H           -5.78669883596284        0.91820555515919        0.76959268340633
C           -5.55872382855853        1.91602197485673       -1.13363905470408
C           -6.91685097716370       -0.18967777519496       -0.64993660109325
H           -4.71068997430916        2.47503385102054       -0.73387814103405
H           -5.29960348979636        1.64238280198297       -2.16302666707055
C           -6.79943155029062        2.81762752458993       -1.13321542636272
O           -7.25231108828051       -0.30512764355038       -1.94801808490891
H           -7.66356678807445        2.25010992616692       -1.49717669233623
C           -7.12014555053191        3.32671761187110        0.26998092844366
C           -6.56514228319580        3.99523071029732       -2.07901224813588
H           -6.25181164947449        3.81872063178367        0.70290897221719
H           -7.93660071990688        4.04401875247024        0.22954398869544
H           -7.42073991774792        2.51105024221428        0.92224289506722
H           -6.35384269268815        3.64964993015821       -3.08909400670781
H           -7.44382811824723        4.63437653412757       -2.11541404334154
H           -5.72174083610533        4.59136811728946       -1.73710236005023
N           -7.50053482019116       -0.82321817623581        0.26890034142432
H           -7.79665961481464       -1.10827777901595        2.02197476078715
C           -8.60308146112318       -1.72110524298842        0.00375617124302
H           -9.34840488989908       -1.26419951172256       -0.65929388230081
C           -8.13074295323885       -3.04012437144992       -0.61788105732050
C           -9.26655580955738       -2.03297239107514        1.35377882509905
H           -7.34635941732488       -3.47767032897016       -0.00369666292737
H           -8.96870545850294       -3.72940511346714       -0.67340043773788
H           -7.73991236796472       -2.86113042039276       -1.61583441552239
O           -8.57783492702592       -1.58235884191996        2.39564246923222
O          -10.29696378831779       -2.63943553133719        1.45356561016798
