42
 energy: -62.486133510611 gnorm: 0.000479928659 xtb: 6.7.1 (edcfbbe)
N           -1.67325387039867       -1.84322882183975        0.60338141774045
H           -1.22144391944254       -1.25632815293197        1.29786873604931
H           -0.96675743171498       -2.44724908099828        0.19993389230046
H           -3.50886613069235       -2.00575384444518        1.26585530556972
C           -2.30620442048389       -1.02680575410042       -0.43126930723187
H           -1.70300999134375       -0.16870020368458       -0.75787118465557
C           -2.64012959096869       -1.89783038254372       -1.64341840506106
C           -3.61364350138944       -0.50740385376949        0.13711503269492
H           -3.23959684412194       -2.75193217208449       -1.33519797076103
H           -3.20320382378165       -1.31341210017978       -2.36461289057693
H           -1.72817477172405       -2.26044117769564       -2.11348886799119
O           -4.14996247604248       -1.28565410536080        1.09910824132391
N           -4.09641889946555        0.55925560771137       -0.31236189724928
H           -6.03961258336750       -0.11010992616181        2.14816788231220
C           -5.39325387229573        1.08329568099958        0.07265588312885
H           -5.27280266460976        1.61474085373322        1.02900850651620
C           -5.78720844714355        2.08033533541471       -1.02404896639019
C           -6.42080222087495       -0.01210138957542        0.25717299540950
H           -5.00329543381111        2.83824543336222       -1.05672130485391
H           -5.77307575457170        1.53773492763867       -1.96863127443984
C           -7.15162130103225        2.75452061986039       -0.85541017402774
O           -6.69787738882688       -0.42197239573939        1.51550151490962
H           -7.93041360006910        2.00423156251742       -1.03218966703097
C           -7.35036553524713        3.34580543568800        0.53840209306680
C           -7.30273922825884        3.84579854257204       -1.91431553524297
H           -6.52568542998892        4.00909352447284        0.79175266219852
H           -8.27305876104547        3.92109685122005        0.57207207964318
H           -7.41987934146950        2.56677720376107        1.29372587886698
H           -7.15350413749528        3.43474422950772       -2.90956293123448
H           -8.29565172138616        4.28736845510834       -1.86962842929792
H           -6.56978747142285        4.63341328601655       -1.75396456487912
N           -6.99768852503926       -0.48929868759160       -0.75782582592391
H           -8.95286634472002        0.47802074639601       -0.15024237023313
C           -7.91531434237018       -1.60407199539194       -0.62807620305628
H           -8.41850313912348       -1.68878737074451       -1.60381084229290
C           -7.18366820729981       -2.91064149341339       -0.32632719279809
C           -9.02136189843380       -1.35604489599910        0.40447398924616
H           -6.64034006862204       -2.81712666660241        0.61016587632078
H           -7.90687359655409       -3.71523625894593       -0.23143666725779
H           -6.48433197336475       -3.13544472462460       -1.12774244662377
O           -9.47008853670356       -0.09157860046342        0.44088590672448
O           -9.50385407260859       -2.20935019232906        1.08984225334094
