42
 energy: -62.486133507406 gnorm: 0.000481002069 xtb: 6.7.1 (edcfbbe)
N           -1.41331867277330       -0.41720811936553       -0.06082748363117
H           -0.68887869489250       -1.07171352376423        0.21448406648575
H           -1.90442870930528       -0.10510722168525        0.77040353201345
H           -3.88028998503367       -0.66820018637897       -2.80395077142523
C           -2.36521268397333       -1.05628284064303       -0.94674306124731
H           -1.94139160415338       -1.02936688887356       -1.96335058857623
C           -2.68258415389767       -2.51978304224845       -0.58204032042457
C           -3.67878239324292       -0.29974187175074       -0.92701399409258
H           -3.06897406733668       -2.56298304658023        0.43410177652510
H           -3.43104917253315       -2.93367121966620       -1.25455307262225
H           -1.78151281557741       -3.12656650401995       -0.64720800668003
O           -4.34830730139573       -0.21746217596550       -2.08973736039134
N           -4.05839458534133        0.17233296432545        0.17530316323368
H           -6.82089288571492        0.13503084903836        2.21864670402672
C           -5.33629632102681        0.80274330036408        0.40859680540030
H           -5.26849231122772        1.18494534587272        1.43749070446826
C           -5.64535850689513        1.96474479217477       -0.55043059110650
C           -6.45146811710261       -0.21656529118159        0.33292686522240
H           -4.77695010472131        2.62632829812274       -0.57498664421373
H           -5.78216835820914        1.53392658213982       -1.54158498880854
C           -6.89616297899434        2.76205148473862       -0.16472749444371
O           -7.18263185760565       -0.39386754831761        1.49716905645136
H           -7.71252282612677        2.06164050371296        0.04714919545378
C           -6.66015901093122        3.63622997541766        1.06602008660100
C           -7.32300922218222        3.63497886251159       -1.34315775904287
H           -5.86187991946966        4.34931371940159        0.87132365651515
H           -7.56249184452218        4.19170434208122        1.31168782385831
H           -6.38260722342056        3.04632277550728        1.93687279474226
H           -7.55490744575852        3.01915064344134       -2.20831727424617
H           -8.20736347391889        4.21423063827152       -1.08816535033495
H           -6.52527032114613        4.32396167229951       -1.61225741332639
N           -6.67382850658287       -0.82973201767675       -0.73066029322432
H           -8.80678636405723       -0.50368506752096        0.68387860941126
C           -7.67134613524126       -1.83689695779436       -0.97294127031074
H           -7.43703669666156       -2.24348305851887       -1.96375212086914
C           -7.69057672555429       -2.98180843131098        0.04923694964687
C           -9.08336850855933       -1.23779401719524       -1.07089154309914
H           -7.98761120602014       -2.63294874260813        1.03574980804176
H           -8.38916688804356       -3.74729871897769       -0.27945096641210
H           -6.69646148059839       -3.41780692182320        0.12255087091326
O           -9.48814858806361       -0.53426554618299       -0.01394877214776
O           -9.78810258758558       -1.40742342972085       -2.02396000837024
