42
 energy: -62.486123777009 gnorm: 0.000705018296 xtb: 6.7.1 (edcfbbe)
N           -2.28780026920315       -2.56185832114543        0.05332357513550
H           -1.34306106508834       -2.92757886060712        0.06178473811509
H           -2.76564662460201       -2.97226532795920       -0.74509060595497
H           -3.82233046091392       -2.26823863960097        1.18232066179290
C           -2.27920900679133       -1.10527243048781       -0.08203206150006
H           -1.58171708843832       -0.71397368224485        0.66946473194281
C           -1.87579396905004       -0.59466167205422       -1.46179685186722
C           -3.66787672012553       -0.61606069392270        0.29873477656978
H           -2.54388381079601       -1.00079780193629       -2.21840154464727
H           -1.95955017077754        0.48623179352259       -1.48175280957514
H           -0.85282274461143       -0.88567902311177       -1.69289867393191
O           -4.35523228791080       -1.45128998710356        1.10503168645434
N           -4.06659460587718        0.50433954865968       -0.10069438612287
H           -6.59070907328034        0.28138972703563        2.22420768390216
C           -5.38729954444395        1.00877308109342        0.20085156444595
H           -5.32124914670754        1.55526739347997        1.15380112011900
C           -5.77144742062104        1.97974474161041       -0.92393279864873
C           -6.43232686554098       -0.07948401106738        0.31734484053634
H           -4.95950806523315        2.69908132398682       -1.03509661518969
H           -5.83466261140177        1.38858166195854       -1.83727368017561
C           -7.09765811955632        2.71118344535711       -0.69647047051455
O           -7.05625736669596       -0.21518180942466        1.54105290343569
H           -7.87188594652785        1.97304211824500       -0.45848575203553
C           -7.00654499412533        3.71796815209128        0.44901955329283
C           -7.50702081761339        3.42714749198351       -1.98187104498297
H           -6.22133478582011        4.44457555102975        0.25062416231603
H           -7.94826411442304        4.25153889354374        0.55525863703932
H           -6.79151831222350        3.23196365551338        1.39791770754038
H           -7.62256066863297        2.71401981226212       -2.79381966012406
H           -8.45282849268201        3.94599221331720       -1.84518432993111
H           -6.75142093953005        4.15641980980103       -2.26628844320076
N           -6.69899766051671       -0.76600800748836       -0.69348131846490
H           -8.72470042038371       -0.46952032419346        0.87216616893959
C           -7.64632391746759       -1.84551849152008       -0.78844498697071
H           -7.46812403217589       -2.30137566507348       -1.76968948119114
C           -7.50851089104274       -2.92100943571081        0.29798433028758
C           -9.09738383435653       -1.34184798674979       -0.79951965171211
H           -7.73740797795870       -2.52360743527180        1.28398842979235
H           -8.18540604566648       -3.74355630066674        0.08050555699363
H           -6.48664930431624       -3.29271567441473        0.30798008725055
O           -9.45819278536220       -0.59025079802960        0.24047057527353
O           -9.86847824800927       -1.62153417849493       -1.67267300633089
