42
 energy: -62.486133508643 gnorm: 0.000480181833 xtb: 6.7.1 (edcfbbe)
N           -1.28029024984784       -0.86906703547954       -1.42691697378802
H           -0.44381273506200       -1.43913593343454       -1.45121314754843
H           -0.98826046718165        0.10361790881081       -1.46682359010597
H           -2.99838949478079       -0.72313869254967       -2.27637988638923
C           -2.04303391852215       -1.10702156587216       -0.20316939653690
H           -2.11307570049406       -2.19538025344121       -0.07248914276938
C           -1.44411153190248       -0.48932999587939        1.05773343634972
C           -3.45860844282414       -0.59804541241058       -0.45418971335882
H           -1.32047028814100        0.58313418885824        0.92576896490405
H           -2.11473782541220       -0.65448991566521        1.89350725400987
H           -0.47562848017644       -0.93376762103372        1.27655126368706
O           -3.79552766587027       -0.50297344082602       -1.75272770027182
N           -4.19799611863363       -0.32997164144947        0.52997366993939
H           -5.08303763172190       -2.13795875918458       -0.27959205906563
C           -5.55787986414673        0.15468780469703        0.39995084800362
H           -5.91721885132247        0.26089801294452        1.43109416560881
C           -5.52942613368308        1.54573732531591       -0.26684027875423
C           -6.48327164791969       -0.83628193171211       -0.28605738415705
H           -4.80392221888283        2.13537473058021        0.30117348222836
H           -5.14290858419311        1.42317787008254       -1.28004753124686
C           -6.84669340434815        2.32004904139435       -0.34032419433442
O           -6.00729927116077       -2.06714446866756       -0.55441496191928
H           -7.50580932113450        1.80962893357733       -1.04515972090308
C           -7.54164395670631        2.41731941294878        1.01447620613401
C           -6.56563085172999        3.72048440155454       -0.88542817916290
H           -6.87700142875756        2.86394869538210        1.75154725988074
H           -8.42963140421023        3.03983180110097        0.93406307682600
H           -7.84410568535033        1.43533914007106        1.36764969454528
H           -6.06316076977309        3.66603095177567       -1.84842219492981
H           -7.49613772811120        4.26695466991897       -1.01678238886299
H           -5.93330626135405        4.27985002113092       -0.19841200655292
N           -7.68246463576374       -0.51724540070150       -0.51002672603695
H           -9.12184869113071        0.66750878419247       -0.46715412737109
C           -8.60484428150203       -1.45983058590748       -1.10707638395697
H           -8.17118095210687       -1.95053329997009       -1.98676521880792
C           -9.05095790673685       -2.53719848678751       -0.10967613887650
C           -9.85548208975230       -0.68102457607648       -1.53334331735496
H           -9.45347846892933       -2.06996728289706        0.78724161200034
H           -9.82137570655795       -3.15170257235736       -0.56697461050371
H           -8.20595311526595       -3.16301284195798        0.16448451664445
O           -9.94628829907773        0.52397599446141       -0.98306532563824
O          -10.69015048587666       -1.13382547585389       -2.26658511101707
