42
 energy: -62.486133510192 gnorm: 0.000480408765 xtb: 6.7.1 (edcfbbe)
N           -1.54378484277068       -0.42776266523926        0.25219083444790
H           -0.82942679959171       -1.13810657355535        0.15158730545176
H           -1.35279016531895        0.07787887649386        1.11277334398885
H           -2.37009144288386        0.90334652341628       -0.78167140066241
C           -2.87728102029014       -1.02882492715996        0.31849758857165
H           -2.92913243355765       -1.80032383816323       -0.45927747022285
C           -3.22137187696213       -1.65241300822752        1.66779018814964
C           -3.88315351990382        0.05139028809743       -0.07866875521934
H           -3.15235773838381       -0.90297373747344        2.45385632265056
H           -4.23581314864780       -2.03359303993751        1.64476953451751
H           -2.53695351134356       -2.46735645929284        1.89403588592967
O           -3.33635154858565        1.07363783054042       -0.76816165024781
N           -5.08146839992795       -0.11297083927169        0.24258354222234
H           -8.53633610980000        1.37606439313577       -0.29319038012432
C           -6.21157500818088        0.73082511972611       -0.02007333197526
H           -6.35673964060712        1.33910111711070        0.88704289737540
C           -6.17513880754642        1.66384391621672       -1.25749875500959
C           -7.41968998851452       -0.18095177778122       -0.11224429114493
H           -5.19840918920001        1.58155840354696       -1.72903950169382
H           -6.91127089205715        1.31773218789688       -1.98905271965737
C           -6.43346077914102        3.14082278391723       -0.93163723440398
O           -8.62663474182273        0.41536866782791       -0.26091204631707
H           -7.34545745315666        3.23153534246607       -0.32363572360966
C           -5.26996734011649        3.73694848582134       -0.14380231572977
C           -6.64610681931831        3.92423899223049       -2.22557971943680
H           -4.35717238759997        3.68022147833209       -0.73106275603188
H           -5.46720315541198        4.77917387424080        0.09728246909549
H           -5.10536309018637        3.19663353443248        0.78540489000140
H           -7.49948152703893        3.53837834684129       -2.77977285283298
H           -6.82523047174447        4.97505268727495       -2.01001076239615
H           -5.76443786565351        3.84909428693708       -2.85765623031831
N           -7.26731780595181       -1.42251055587950       -0.03398653136447
H           -6.16425812480349       -2.71970289339195        0.40368569878206
C           -8.33871834465930       -2.38309895623741       -0.08210722025625
H           -9.17025621725320       -2.10455408403267        0.57816852053802
C           -8.87925284232960       -2.57977193195945       -1.50181795675119
C           -7.73889082268685       -3.71338720796401        0.41134478962826
H           -8.05946350298318       -2.80271184749138       -2.18170852274073
H           -9.58090528962467       -3.40905679645923       -1.50584612932054
H           -9.38335905488180       -1.67663320793067       -1.83649516120722
O           -6.42919837328860       -3.65478388286524        0.60824965260301
O           -8.39491919563680       -4.70338477686025        0.58458119416159
