42
 energy: -62.486133525655 gnorm: 0.000477747968 xtb: 6.7.1 (edcfbbe)
N           -0.91024932775731       -1.01367649247711        0.19194808988254
H           -0.46835079618815       -0.16156597907445        0.52061469177429
H           -0.19159856293032       -1.60049181860580       -0.21511905092429
H           -2.35472782431912       -1.28209658275229        1.38463085532039
C           -1.95436268247026       -0.71348118357121       -0.78800498288005
H           -1.71091336160547        0.12102455980452       -1.45794870963340
C           -2.25900404174505       -1.95560674579569       -1.62633398536127
C           -3.20714308890970       -0.35468400440061       -0.01016537193771
H           -2.51315063267446       -2.79339498880212       -0.98014475270425
H           -3.09675292710173       -1.75126337542138       -2.28625425384355
H           -1.39435447389731       -2.22704544477103       -2.22799038571616
O           -3.24058724060591       -0.88106639351004        1.24463954414153
N           -4.08365356847071        0.36431099510435       -0.53947943672029
H           -5.01332372926498       -1.33276661206000        1.40066646744954
C           -5.35041288053559        0.70128853100626        0.08316404004011
H           -5.17765939966845        1.03142125579011        1.12177087413679
C           -5.97139446301542        1.83352223267750       -0.73601404785872
C           -6.23871340907689       -0.52562814259273        0.15799951922740
H           -5.20060758383299        2.59137178329673       -0.88527163793085
H           -6.22847609399548        1.42609736742967       -1.71302553955874
C           -7.20503191473253        2.47457271035355       -0.09151820347573
O           -5.88657199621653       -1.50424585462519        1.00897771161719
H           -7.85580637904886        1.67869735916174        0.28185247832849
C           -6.81728938472810        3.37992778021736        1.07638644231059
C           -7.97443886942167        3.27961995221135       -1.13703571759578
H           -6.17106650832321        4.18525743264837        0.73285732841767
H           -7.70510860979050        3.82176121272577        1.52296208939389
H           -6.29308596466222        2.82630697457095        1.85148162736957
H           -8.31343073140691        2.63908643415440       -1.94731256363437
H           -8.84533304245477        3.75165074542633       -0.68831242147899
H           -7.34088780463331        4.05875484420892       -1.55555854169833
N           -7.26765262493820       -0.58847411867210       -0.56612781299613
H           -8.24249332098291        0.05583348138368       -1.93133476459325
C           -8.15354801464379       -1.72820679282977       -0.55347014167333
H           -7.60295330027016       -2.67726837890133       -0.57322481832182
C           -9.07586171144562       -1.71774593405136        0.67106940177086
C           -9.02648448122433       -1.62748735095677       -1.81402611215549
H           -9.60877323854681       -0.77038383734329        0.72677264267896
H           -9.79632467698149       -2.52616526707586        0.58465377661690
H           -8.48961584913763       -1.84996451478319        1.57691208429346
O           -8.92359274112653       -0.45692435214706       -2.43059678054810
O           -9.74540401023264       -2.51289733713644       -2.18615451298458
