42
 energy: -62.486133508997 gnorm: 0.000480671758 xtb: 6.7.1 (edcfbbe)
N           -1.54828961116324       -0.81548767957513       -1.84110529997226
H           -0.91364586336528       -1.54763154463825       -2.13590609156319
H           -0.98965528330570       -0.06747448909909       -1.43961662181977
H           -3.07617389246847        0.15720229081464       -2.50001747514802
C           -2.49625775337701       -1.31594194152732       -0.84654454119748
H           -2.91099080586658       -2.25369206310149       -1.23762877751043
C           -1.89784691299683       -1.56901948115417        0.53465042730781
C           -3.66299000358461       -0.33260680597089       -0.78931960399532
H           -1.46346725952071       -0.65268919429677        0.92879493507259
H           -2.68339717717047       -1.89215402120242        1.20817184337866
H           -1.12557416225859       -2.33424400746282        0.48237465478167
O           -3.81433777173786        0.39736447560310       -1.90418665931571
N           -4.36772523380903       -0.31228610973740        0.24896994203665
H           -7.50192851718676        0.27218963009469        1.91338066308373
C           -5.54915712370891        0.48064029350851        0.46863933858996
H           -5.50533084892561        0.74681925776854        1.53596477544544
C           -5.70648683262854        1.76004469086533       -0.37505439000857
C           -6.75285528730536       -0.40871666008191        0.24626301072034
H           -4.77717544840685        2.32891802808376       -0.30604236979769
H           -5.83935454738155        1.45546803852671       -1.41265190131746
C           -6.88006259968056        2.65343853331432        0.04454265244560
O           -7.75856764167840       -0.31732141077413        1.19393506058057
H           -7.78658822636007        2.04429746015960        0.13349157886934
C           -6.61839041550843        3.35718150956782        1.37598294953467
C           -7.13249796216030        3.69535059631445       -1.04428046196205
H           -5.74729143251379        4.00351424870574        1.29159570576449
H           -7.47271671046044        3.97160119631637        1.65210249962605
H           -6.43659165714493        2.65202780933816        2.18480581364283
H           -7.38391254209907        3.21040645886975       -1.98405615027349
H           -7.95627789269885        4.34813473129598       -0.76446353697811
H           -6.24540488311776        4.30593031698740       -1.19789367958043
N           -6.79487976591501       -1.14587086300797       -0.76002097639456
H           -9.13995797202881       -0.38491969826618        0.02512550390008
C           -7.84608780116170       -2.05047707935042       -1.14399127659807
H           -7.44645271329225       -2.61340731818408       -1.99551660966761
C           -8.27004673140442       -3.03500354583645       -0.04539157131277
C           -9.09439488319967       -1.31472985454696       -1.65561264529817
H           -8.71829438929533       -2.51982852161141        0.80136408790877
H           -8.98997530322527       -3.74152202749301       -0.45118481450907
H           -7.39620369958380       -3.57983222466412        0.30471519526279
O           -9.63711928735830       -0.43590636998989       -0.81303883630584
O           -9.57183642886932       -1.53179225884158       -2.73241108204620
