42
 energy: -62.486133513729 gnorm: 0.000480031050 xtb: 6.7.1 (edcfbbe)
N           -1.98818647723684       -1.38198104075718       -0.51950303426375
H           -1.40684408526978       -2.19877210095436       -0.37783959989545
H           -1.41219576108806       -0.56302989545815       -0.34541543043340
H           -3.26504697091752       -0.72123191068717       -1.80050294715968
C           -3.13030526985450       -1.38870327992348        0.39429735085531
H           -3.56772604479427       -2.39454513905939        0.36228784725225
C           -2.79923767788159       -1.03496011273810        1.84113547656086
C           -4.18197216061041       -0.45312288197441       -0.18651248621652
H           -2.32876254746562       -0.05512544902261        1.89010959230382
H           -3.71705934072659       -1.00368529554440        2.41711082141353
H           -2.12596709217384       -1.77420045553122        2.26953578025431
O           -4.07825298410409       -0.25716812438495       -1.51411625040468
N           -5.06968419731532        0.00853516528441        0.57189687592860
H           -8.06699950079359        1.31746462712817       -1.38132750903539
C           -6.15977963439828        0.83694006065705        0.11249384690648
H           -6.52496394855620        1.33715460691710        1.02232746427014
C           -5.80507898852231        1.90824175136968       -0.93686853332075
C           -7.27669374419645       -0.08945172602181       -0.33702121948157
H           -4.73660736841737        2.11418654535065       -0.85747045861094
H           -5.96922506520654        1.50836781616640       -1.94108567773246
C           -6.56292876510166        3.23262722197608       -0.74549285959775
O           -8.24595547527412        0.40047891225888       -1.13709163262420
H           -7.60526453201907        3.03508919593207       -0.46048444692625
C           -5.92712091674776        4.05529031436968        0.37372208522829
C           -6.56374671917486        4.03181791974645       -2.04797410156806
H           -4.91876238986977        4.35331912588637        0.09448149975230
H           -6.50949211146258        4.95377072298308        0.56537954149158
H           -5.87019944076116        3.48104396721186        1.29539577331286
H           -7.06437656543415        3.48645149328987       -2.84604287066303
H           -7.07556475192829        4.98169676471131       -1.91170124763069
H           -5.54304982835763        4.23563697917946       -2.36364544328336
N           -7.26402845189348       -1.27174960725555        0.08773697982945
H           -6.48691684850878       -2.44215400877393        1.17185169228608
C           -8.24939233626074       -2.26959935489285       -0.24190842018651
H           -9.26386355511382       -1.93021872626896        0.00470224472825
C           -8.21037205502122       -2.68053492318525       -1.71716982842121
C           -7.92212553059914       -3.49969719945185        0.62495102487497
H           -7.19376107241140       -2.94903743022775       -1.99799440896811
H           -8.85921299156029       -3.53919775733586       -1.86474899180152
H           -8.54633431726706       -1.85899549686691       -2.34421381727739
O           -6.81985125653901       -3.35815984561317        1.34898887034638
O           -8.59328253783179       -4.49481733153666        0.62666186223578
