42
 energy: -62.486133496956 gnorm: 0.000480492799 xtb: 6.7.1 (edcfbbe)
N           -1.54069826317942       -1.44841286096472       -0.54035181576821
H           -1.10599215542260       -1.72239846915414       -1.41351520198496
H           -1.83271299918826       -2.29799875205021       -0.06520538840574
H           -1.12086463376709       -0.21156446188317        0.75968059038029
C           -2.70213132327982       -0.58618625481749       -0.77927425697126
H           -2.37632601581030        0.19415484093839       -1.48486424181057
C           -3.86781847042159       -1.33860509226173       -1.41243520278346
C           -2.93329689448884        0.21881448289403        0.52874064901928
H           -4.22779291407967       -2.13124777713113       -0.75988772268951
H           -4.68982692795752       -0.67200250136695       -1.65157704007349
H           -3.52977303765529       -1.79648219586049       -2.34229695986303
O           -1.78845675060850        0.35147051236589        1.21140296137405
N           -3.89231419345431        0.91851354667695        0.94425429194343
H           -4.59454664994338       -1.08876051485998        1.80950896777604
C           -5.30924084619191        0.90245483808831        0.72853166467683
H           -5.73247568107665        1.28405105917832        1.67179809856139
C           -5.71507917419230        1.86894926374014       -0.39945134103747
C           -5.88825655083799       -0.48299264808920        0.54097974757893
H           -5.01573908173889        2.70692594342908       -0.38132199852343
H           -5.60067011732792        1.35776056663059       -1.35659677369409
C           -7.14683315053779        2.40419147051128       -0.26945173022285
O           -5.32946599625972       -1.45701480684287        1.29671271433042
H           -7.79733717425694        1.57885202910626        0.03303287824051
C           -7.22908714908607        3.50692683266422        0.78381525647939
C           -7.62619576700306        2.93963796214993       -1.61786282385419
H           -6.61843688042617        4.35787306701357        0.48849203623426
H           -8.25658562130397        3.84555379400151        0.89616157052457
H           -6.87989211409078        3.15683104678698        1.75214813740042
H           -7.62059827849362        2.15945802155737       -2.37566357628492
H           -8.63955028639138        3.32467432707111       -1.53440131302428
H           -6.98056131795408        3.74879502018608       -1.95295415222889
N           -6.89931889630801       -0.66168149210933       -0.18478567197616
H           -7.80906059013017       -0.15951165070759       -1.71372866581124
C           -7.51829655201243       -1.95442659907294       -0.35296664535975
H           -6.82595539146657       -2.78815777374266       -0.18491218761687
C           -8.71910320722720       -2.09908956596087        0.58860389012686
C           -8.03910481233162       -2.01308372472894       -1.79642982571502
H           -9.40458690830508       -1.26558489029485        0.44911037434068
H           -9.23834362995531       -3.02849879814835        0.37191293420899
H           -8.37966257715599       -2.10792389715320        1.62161770431385
O           -8.15352205755080       -0.81584745433883       -2.36170552392081
O           -8.33068090356597       -3.03593698085553       -2.34866707523418
