42
 energy: -62.486133515091 gnorm: 0.000479421878 xtb: 6.7.1 (edcfbbe)
N           -1.41739400918319       -0.41764689208346       -0.09718595937058
H           -0.69743401787826       -1.08304450393711        0.16406909066464
H           -1.90554204876192       -0.12135874236643        0.74156059094075
H           -3.88215184457791       -0.58212537652451       -2.84190339022288
C           -2.37640570777708       -1.03506356435466       -0.99222631564210
H           -1.95365308823157       -0.99489404628951       -2.00866542476638
C           -2.70461899315731       -2.50054281172516       -0.64905989378639
C           -3.68189341216489       -0.26582581638955       -0.95606532259186
H           -3.08819402337024       -2.55456711275155        0.36721734237018
H           -3.46019432857458       -2.89706536259537       -1.32360630804120
H           -1.80869515584047       -3.11374597723832       -0.72672516111527
O           -4.33923332986731       -0.12950391028366       -2.12173366248040
N           -4.06845630932946        0.16328190600435        0.16122589294975
H           -7.08907346152656        0.50214329023730        2.06059497283126
C           -5.33834351038361        0.80116441324366        0.40038134771551
H           -5.25665790294266        1.19600869361135        1.42398360728223
C           -5.66987128977807        1.95259128959560       -0.56766036323258
C           -6.45463050121106       -0.21819262690642        0.36089052099058
H           -4.79740781046262        2.60764549008376       -0.61867701458707
H           -5.82662874654318        1.51349537730110       -1.55230231891829
C           -6.90550970431560        2.76972262251270       -0.17404196607868
O           -7.35588722924808       -0.15986559529158        1.41113215897421
H           -7.73400229494809        2.08699689586974        0.04694643795147
C           -6.64523146685156        3.65086015794972        1.04714444832349
C           -7.32902094723325        3.64119903953957       -1.35522070300825
H           -5.85511011803913        4.36625025825308        0.82949553498809
H           -7.54372433462854        4.20430357369738        1.31120346006198
H           -6.34206392119036        3.06890961105043        1.91519213911854
H           -7.57786522393459        3.02332813285921       -2.21429197258195
H           -8.20224399724573        4.23569243871652       -1.09672234754089
H           -6.52337855241588        4.31591645012166       -1.63643708706854
N           -6.54161587321183       -1.01516528782052       -0.59543399752534
H           -8.85013349557976       -0.40671171432133        0.39899164488955
C           -7.53883584768822       -2.02995906307742       -0.80672740779884
H           -7.18002718055830       -2.61624267047576       -1.66088853924478
C           -7.76574849830765       -2.96770241404988        0.38665372955468
C           -8.88783287876809       -1.42654704095921       -1.22936974486601
H           -8.17883817122299       -2.43607120501304        1.24101411517200
H           -8.45254196592429       -3.75945997966994        0.09758471156168
H           -6.81765164612084       -3.41190546142931        0.68212184329184
O           -9.41884532441818       -0.54624846363055       -0.38147155257814
O           -9.44360309471863       -1.74207940626314       -2.24205161951876
