42
 energy: -62.486133508777 gnorm: 0.000480585571 xtb: 6.7.1 (edcfbbe)
N           -0.99211932795541       -0.58644294003452        0.72081591510313
H           -0.03227028351063       -0.75616268249078        0.44606880848709
H           -1.24600766153737       -1.29738505691636        1.40134272622280
H           -2.14824379700471        0.86647917132550        1.28920685651791
C           -1.88856009324343       -0.66126611836346       -0.43146059905574
H           -1.44488268877558       -0.04667881202700       -1.22632746898208
C           -2.12907493302883       -2.07342729218603       -0.96155468323455
C           -3.18656526967289        0.01935335122641       -0.02371327617383
H           -2.61159977456507       -2.68270397170268       -0.20050936466765
H           -2.77573234649031       -2.03695982064253       -1.83148647404761
H           -1.18469976744437       -2.53648310140278       -1.24134633745952
O           -3.06944611270508        0.91736282860988        0.96434919477553
N           -4.26154920863385       -0.26741712303121       -0.61238066409091
H           -5.40181334678479       -1.13618995557834       -1.96834428331119
C           -5.50328333853829        0.38746768574323       -0.25366918994428
H           -5.56129545003654        0.58305671995277        0.82163252511287
C           -5.64124765837902        1.71296086674156       -1.02522126622658
C           -6.60213841136737       -0.56557027994767       -0.66176169436740
H           -4.80300868329677        2.35167896348867       -0.73834838727127
H           -5.54836276145517        1.49640695739374       -2.09335331086743
C           -6.95820757603486        2.45265473984074       -0.77183978293504
O           -6.34167858179708       -1.28982954578016       -1.75858239594718
H           -7.78927070690246        1.77766175427328       -0.99978327009029
C           -7.08357087926323        2.90537118385765        0.68033480586716
C           -7.04577405222638        3.65984422200119       -1.70466085075209
H           -6.24659236789549        3.54609114776931        0.95071038657405
H           -8.00499371316408        3.46547171952368        0.81824662579644
H           -7.10263909506561        2.05512156374716        1.35601557238724
H           -6.99201200016642        3.35030637156954       -2.74601990422779
H           -7.98478443713744        4.18617282252579       -1.55358478516630
H           -6.22903551102649        4.35165186915818       -1.50839166218653
N           -7.65079417146675       -0.65328005544685        0.03160912582619
H           -8.85801652268587        0.24820082170521        1.05147383129685
C           -8.73228012261970       -1.53872506979759       -0.34151031816102
H           -8.82619286877939       -1.64736848237917       -1.42951817373785
C           -8.54436154110869       -2.92562364803765        0.28245001343678
C          -10.03135783359880       -0.93157305850613        0.20834254772228
H           -8.40818382966837       -2.83237754996360        1.35802255536000
H           -9.42450253951628       -3.53093688995626        0.08478471456019
H           -7.66856272745698       -3.40788178598476       -0.14505059539233
O           -9.83219724240722        0.09789481450193        1.02330576753374
O          -11.11928202579220       -1.35895218383100       -0.06135824854471
