42
 energy: -62.486123741496 gnorm: 0.000704339292 xtb: 6.7.1 (edcfbbe)
N           -0.69604679180533       -0.04555122866648       -0.33701403824822
H            0.12463343534996       -0.35317478772192       -0.84419017372012
H           -0.55024053296187       -0.26318309813304        0.64498863787844
H           -1.81840129372089        1.49143528508094       -0.20444315953110
C           -1.89913901318859       -0.71888631058973       -0.82273654682034
H           -1.87606860224856       -0.67150463477373       -1.91960372513312
C           -2.02503261766646       -2.17756946597269       -0.38484813593492
C           -3.09080132157711        0.12620284571267       -0.37845598150427
H           -2.15312674937290       -2.23751707248144        0.69377234278566
H           -2.88150095894455       -2.64347740402541       -0.86048405939634
H           -1.12929617920354       -2.72867278943421       -0.66577610192750
O           -2.79055174433460        1.40388422500377       -0.11311274456152
N           -4.21836200115700       -0.41964426759533       -0.28224198652446
H           -5.09797162908690       -1.89422654022148       -0.71745067356809
C           -5.47574517649061        0.22492296681592        0.03623745032991
H           -5.52472940552747        0.40311393596659        1.11698131349209
C           -5.64781784002360        1.56323212551204       -0.70777464261970
C           -6.54428944834745       -0.80125224798808       -0.33056249919432
H           -4.83905181174057        2.21766660952667       -0.38001958237114
H           -5.50796234424353        1.36818754600319       -1.77469739697425
C           -6.97337106035795        2.30270024501289       -0.51096256870785
O           -6.07806427702209       -1.98794167197834       -0.73290693325647
H           -7.76791552876625        1.72923551008731       -0.99212948044363
C           -7.31468112591640        2.48661119346248        0.96487470389042
C           -6.88612437159912        3.66442903123293       -1.19992247443875
H           -6.50923512095103        3.00841849816451        1.47844795185879
H           -8.22299433793760        3.07547749990030        1.06751777002739
H           -7.47419608658373        1.52653613976901        1.44813369793999
H           -6.63728881278776        3.54970793221286       -2.25236222016134
H           -7.83875358162744        4.18327521917298       -1.12920152347347
H           -6.12244035405505        4.28247418926642       -0.73169738539680
N           -7.77157024441868       -0.51373518175472       -0.26373550911635
H           -9.19066946901344        0.62447380654623        0.10078139217159
C           -8.77561971806673       -1.49363657961595       -0.62315197301488
H           -8.54394613567565       -1.97924981629488       -1.57924799961672
C           -8.93163876943410       -2.57554791392619        0.45329684372383
C          -10.11640575084980       -0.76031204618606       -0.74482244649544
H           -9.13231947625719       -2.11348122009708        1.41825056008681
H           -9.76040258327173       -3.22716336125425        0.19126170433001
H           -8.01874857134839       -3.16127048403883        0.52236027896939
O          -10.11096158152553        0.45146675584210       -0.20075102507496
O          -11.08734227654038       -1.24847931213060       -1.25366662709994
