42
 energy: -62.486133516635 gnorm: 0.000479366726 xtb: 6.7.1 (edcfbbe)
N           -2.66568048133934       -1.17433996527439        0.74446557487656
H           -1.92851614703035       -1.52015210164984        0.14197778251729
H           -3.11782979794882       -1.97802380237410        1.17432379123198
H           -2.91108628199061        0.04690637467722        2.04775098434073
C           -3.65427770501184       -0.40427612707564       -0.01553801860840
H           -3.09271911064071        0.34184592624006       -0.59988470782479
C           -4.43207685811297       -1.29688422397667       -0.98118674465520
C           -4.43037408217666        0.44805717724680        1.02695262444697
H           -4.89502141651279       -2.11865199993956       -0.44228492744203
H           -5.20140450804213       -0.75910248314669       -1.52236488636156
H           -3.73599649175310       -1.71696285393540       -1.70844154735465
O           -3.70797598252496        0.61884448085331        2.13785697579119
N           -5.50426886288000        1.10228907624037        0.98698135910329
H           -8.54692867722841        0.58839412483034       -1.25405669195285
C           -6.57647156657831        1.11920054332200        0.04818227172046
H           -7.32340927254291        1.79757545769985        0.49704087560942
C           -6.19806901689714        1.69796258146802       -1.33766563284213
C           -7.28740230738054       -0.22065332250085       -0.04405480033084
H           -5.16125241317355        1.44049040121762       -1.55662627667183
H           -6.82031715231649        1.25415208894439       -2.12184556043997
C           -6.33837709971263        3.22386589283187       -1.39736755125969
O           -8.37571677977327       -0.27033468582804       -0.84608866015795
H           -7.34507020403279        3.49814956584081       -1.05816957266379
C           -5.31711265549777        3.89434836933118       -0.48320954886627
C           -6.16821934600238        3.70843393226702       -2.83639840438248
H           -4.30983428396275        3.72740918942251       -0.85975190520145
H           -5.49275554719148        4.96649331582973       -0.43921951785924
H           -5.37560610963877        3.48589524756809        0.52214848144328
H           -6.92551310605640        3.27606385644948       -3.48802783634545
H           -6.25673291008071        4.79091275160911       -2.88247831355259
H           -5.18799387842388        3.42951879809479       -3.21743906009300
N           -6.90827992332326       -1.16133094773089        0.69399780476982
H           -5.67712777704770       -1.67058306321830        1.91766421463143
C           -7.48365464870597       -2.47850889828236        0.78503555288547
H           -8.36342864356117       -2.43489960009463        1.44305625439319
C           -7.88257173251566       -3.14620904673200       -0.53073137738418
C           -6.43555505416068       -3.33732149868693        1.52321128734367
H           -7.06804767722181       -3.07744869888284       -1.24902669405832
H           -8.08961481116715       -4.19522690043788       -0.33667668715893
H           -8.76353664221967       -2.67236516643994       -0.95268072993540
O           -5.48150893193281       -2.62029372912927        2.11086774571488
O           -6.46885407228302       -4.53522336403464        1.55867653384624
