42
 energy: -62.486133510402 gnorm: 0.000479810107 xtb: 6.7.1 (edcfbbe)
N           -2.94869022116893       -2.55687947164945        0.17892181660662
H           -3.49987609510703       -3.00820344732253        0.90314766256215
H           -2.03230056049831       -2.98830997540563        0.16772272641828
H           -4.34429311775393       -2.07303507788332       -1.00560721495762
C           -2.84526208494244       -1.11960162385516        0.41893538234675
H           -2.65963428376036       -0.85234860972408        1.46812906313667
C           -1.73536490320392       -0.52634055573280       -0.45020072416852
C           -4.17520906021613       -0.50789402924026        0.00165263001711
H           -1.91228526392870       -0.76606930676760       -1.49633237178593
H           -1.72021002986132        0.55233287997843       -0.33023029398716
H           -0.76766607888494       -0.92840389883064       -0.15778080374537
O           -4.84212605545173       -1.23069665629203       -0.91274868832352
N           -4.49731191113414        0.61227001484326        0.47279479583162
H           -8.10694168544384        1.90245659444432        0.31668048139241
C           -5.76197642035856        1.25506681385591        0.20790354661115
H           -5.79328940654241        2.12321283641605        0.87932034488163
C           -5.77270536509327        1.72501459434209       -1.26837642588353
C           -6.95202506237030        0.37443585954969        0.52444033562300
H           -4.80434997355247        2.20379365439778       -1.43647716234438
H           -5.80817418523767        0.82685361299226       -1.88805533336375
C           -6.87232550435131        2.69059055723303       -1.72361610915157
O           -8.17148194658910        0.95931375405951        0.50982463797038
H           -7.85106415966534        2.20282203039986       -1.65217146227434
C           -6.88086812547151        3.98561415560936       -0.91099250153644
C           -6.64694080067336        3.01961208258231       -3.20059017432612
H           -5.91166792296784        4.47468569614964       -0.98230465233666
H           -7.63542215162928        4.66692253505094       -1.29865637645994
H           -7.09323330007016        3.81834320536253        0.14390742176508
H           -6.65046253489229        2.11282411322473       -3.80066168492424
H           -7.43193487007394        3.67664558406080       -3.56798380204656
H           -5.68996868476877        3.51828977471928       -3.33736693350423
N           -6.78261152703575       -0.81751492349741        0.88296728112421
H           -5.66137723019362       -2.09232762436788        1.21057209504241
C           -7.84824936697059       -1.71744852780970        1.24565498244441
H           -8.48455848653366       -1.29167282606240        2.03204693313040
C           -8.72563715620123       -2.10395456234037        0.05073980651457
C           -7.16924299308261       -2.98620877363833        1.79019044687108
H           -8.09920082349849       -2.45229123005205       -0.76801774262335
H           -9.40396426455578       -2.89927087868000        0.34700453428805
H           -9.29927141974246       -1.24326216721412       -0.28264679941413
O           -5.84906213708648       -2.97466944300981        1.62674268806778
O           -7.76795901854957       -3.89679464080032        2.29032192915463
