42
 energy: -62.486133515241 gnorm: 0.000479714678 xtb: 6.7.1 (edcfbbe)
N           -0.95595590131670       -0.38685900839147       -1.16693526493347
H           -0.17319630737673       -0.99827938946411       -1.36404315072316
H           -0.62127222064321        0.34793599160969       -0.54919037782778
H           -2.34470244766288        0.53549858157497       -2.08438048068835
C           -2.04365421004471       -1.11910524555961       -0.51947829953629
H           -2.19545363473522       -2.04532434260884       -1.08938036967285
C           -1.79898965290102       -1.46673502563467        0.94579625614847
C           -3.31004466043187       -0.28320782713870       -0.69315855023127
H           -1.60415499943278       -0.56220743605606        1.51765695668154
H           -2.68321518565611       -1.94402222392429        1.35425579576173
H           -0.94755586170962       -2.13751501053753        1.04088835158507
O           -3.26221209835596        0.56561027644828       -1.74147405050368
N           -4.27158867799775       -0.48072725786756        0.08827586851670
H           -5.25846402207362       -1.18340453646739       -1.85953602617960
C           -5.54654531683908        0.19234141460071        0.10426075073505
H           -5.81994557670733        0.25192817287631        1.16218515673861
C           -5.58537226930052        1.60436942822576       -0.51428133536135
C           -6.57829901268800       -0.68032214582678       -0.57876089459459
H           -4.74240738833207        2.16776458727950       -0.10760382974003
H           -5.43970016530161        1.52553215052950       -1.59367550114313
C           -6.88329416825055        2.37186775617335       -0.24361728752224
O           -6.19099862147061       -1.35899182071469       -1.67426855567224
H           -7.72891007128262        1.75127315445057       -0.55492741962106
C           -7.05047655859372        2.71534553947030        1.23436983162720
C           -6.89372909214326        3.65284092077354       -1.07734811190543
H           -6.20677324822228        3.30680591874476        1.58494189023731
H           -7.95885849148207        3.29431596468875        1.38067344380752
H           -7.12321109322050        1.81916641290020        1.84424311138862
H           -6.81392985759792        3.42550463114216       -2.13795303660530
H           -7.81804406474764        4.20168698143488       -0.91521032199266
H           -6.05987181878240        4.29473971086217       -0.79986808046465
N           -7.76128691741118       -0.67395978498227       -0.14664821582413
H           -9.05937969402714        0.13850037527927        0.84313428276340
C           -8.81745141650519       -1.41333535541846       -0.80014356674283
H           -8.74715217996573       -1.35300326018502       -1.89381391270241
C           -8.80929514964785       -2.88846825808463       -0.38478687219533
C          -10.14914587652176       -0.79151429034376       -0.35351840607296
H           -8.83612537550741       -2.96841244339123        0.69999155171296
H           -9.68210350994879       -3.38327122099479       -0.80136485510574
H           -7.90767561694623       -3.37129138402230       -0.75332968908874
O          -10.02298106140214        0.07095078338638        0.64805435467362
O          -11.20276777300580       -1.07604723960784       -0.85109606529692
