42
 energy: -62.486133506754 gnorm: 0.000481003509 xtb: 6.7.1 (edcfbbe)
N           -0.95670662562488       -1.01639724293545        0.02853950457294
H           -0.48979182056601       -0.13704698159215        0.22576245196674
H           -0.27093316449570       -1.65125201610567       -0.36206601900824
H           -2.32798893315555       -1.08181513923265        1.35448421966279
C           -2.06726375753447       -0.81463055685673       -0.90250764843831
H           -1.85788023159959       -0.08693298594192       -1.69773479295504
C           -2.46641817301137       -2.14749943334662       -1.53755988188288
C           -3.24307410148339       -0.30826114581577       -0.09015308049547
H           -2.68538466524427       -2.88212866257464       -0.76483414068547
H           -3.35028772493426       -2.00649702092068       -2.15304096940332
H           -1.65903161466390       -2.52522919054328       -2.16099957566770
O           -3.20453462010186       -0.66142480931269        1.22133615867025
N           -4.14479068145296        0.36252051025112       -0.64437700058588
H           -5.07261704810295       -0.94836715356040        1.73096566810316
C           -5.32192794633697        0.81735529715583        0.07564577136885
H           -5.03309635873979        1.21570625055885        1.06116669247414
C           -5.97881783135575        1.90592264541743       -0.77403006578792
C           -6.22169484923149       -0.37901229423691        0.30179754312604
H           -5.23689698241503        2.69008025438686       -0.93550435312241
H           -6.20884207029902        1.46213285318950       -1.74209579380635
C           -7.24691014734625        2.51481879621633       -0.16946460559885
O           -5.93746394237010       -1.17302371188137        1.35204599538390
H           -7.93531571633284        1.70318484947084        0.08341515222093
C           -6.94484569121672        3.31438070677830        1.09654925352820
C           -7.91859999645378        3.41476937957152       -1.20518924593227
H           -6.21203548381822        4.09187681195817        0.88948622786502
H           -7.85085497078701        3.78928821982822        1.46625215687133
H           -6.55787799065245        2.67557152626711        1.88653321162062
H           -8.17063443074161        2.85037729881164       -2.09947161160624
H           -8.83303126734403        3.84393087977599       -0.80233144328965
H           -7.25398375464359        4.22860647142003       -1.48773936444121
N           -7.15371165913268       -0.62190272155868       -0.50908188584987
H           -7.91546722557212       -0.34547302277588       -2.12067881420974
C           -8.00841280441961       -1.77703012592533       -0.37457702548556
H           -7.44723478366356       -2.67715549556987       -0.09233369554085
C           -9.11336098035192       -1.53831744711127        0.66110736534158
C           -8.67156490390521       -2.00450060316080       -1.74148614034314
H           -9.66750424345570       -0.63520493386427        0.41216931854040
H           -9.79472154035691       -2.38437385884669        0.66161566432442
H           -8.67496120719986       -1.42520117136948        1.64963740765435
O           -8.49755913269150       -0.99423810221933       -2.58418876268314
O           -9.30216018060739       -2.98963274660208       -2.00812869678779
