42
 energy: -62.486133500525 gnorm: 0.000481813957 xtb: 6.7.1 (edcfbbe)
N           -1.78765214073621       -2.15516343325703        0.32104506654334
H           -0.83145766497984       -2.42202984101896        0.11901463943151
H           -2.37789114154772       -2.95390310663744        0.10265194198929
H           -2.88606421151170       -1.33030059467591        1.68314247897406
C           -2.19183481620037       -1.01265815078493       -0.49993434070936
H           -1.40120144633015       -0.25575500512063       -0.41366052325249
C           -2.42891519476296       -1.33386428894766       -1.97313042434098
C           -3.43992894308625       -0.42353882867382        0.13371851204048
H           -3.19675640680667       -2.09846112059884       -2.06773103408624
H           -2.77975514076397       -0.44214059847642       -2.48024131595884
H           -1.51123094568887       -1.68560389508769       -2.44077095779641
O           -3.61479351651491       -0.72564589124247        1.43881059740592
N           -4.21391456421779        0.29450395369531       -0.54581063013884
H           -6.91729600901724        0.43769702180277        1.92042502701803
C           -5.38635941740065        0.86807256109230        0.07410942920570
H           -5.16081320117711        1.19012608844185        1.10343576831472
C           -5.82497394203642        2.06171337210256       -0.78878895356267
C           -6.49336998976107       -0.15868487478113        0.11177720582103
H           -4.98431470030031        2.75424115398442       -0.85512291833391
H           -6.01194757709648        1.66290878764501       -1.78594517819495
C           -7.06724014987007        2.80113967644543       -0.28226669831773
O           -7.27076297174445       -0.16807839315643        1.25784855286659
H           -7.86178105220687        2.07379989511569       -0.08121532376011
C           -6.77809805759014        3.58910510270642        0.99514285921014
C           -7.57168519908168        3.75004656122735       -1.36778790969017
H           -6.02119096370659        4.34676636596005        0.80348143686221
H           -7.67982749899693        4.08775017732732        1.34359453885622
H           -6.41772400106763        2.94848790629873        1.79741864842248
H           -7.83646098973552        3.19602513218120       -2.26457716554243
H           -8.45258214439640        4.28760880669620       -1.02465194381463
H           -6.80304050561896        4.47582190602784       -1.62431753550963
N           -6.66732426659035       -0.91818513204391       -0.86339781422662
H           -8.85289636227920       -0.41622294583272        0.42054861331268
C           -7.65581324895123       -1.95495327605226       -1.00007604539838
H           -7.38807653853079       -2.48944116064896       -1.91908551743559
C           -7.69826065530102       -2.95151089401419        0.16707452195510
C           -9.07063654401660       -1.39578505825558       -1.21851368747493
H           -8.02985471793748       -2.47556925276561        1.08733387955597
H           -8.37819084484795       -3.76442678468667       -0.07546225107260
H           -6.70261629275819       -3.35878020827259        0.32931132003730
O           -9.51393476775001       -0.55560539218546       -0.28386794471565
O           -9.74772251182361       -1.71153243863543       -2.15459383179019
