42
 energy: -62.486133502440 gnorm: 0.000481284794 xtb: 6.7.1 (edcfbbe)
N           -1.20616788117598       -0.63824197522786       -1.41768765119487
H           -0.57859372807656       -1.34328849363755       -1.78484017202958
H           -0.70123861581508       -0.11915289694556       -0.70429131819664
H           -2.45625420120807        0.68683121069639       -2.04807161407961
C           -2.39734723065991       -1.25280948856710       -0.83294666403128
H           -2.78391421412654       -1.97123857130786       -1.56758013350740
C           -2.15900422701055       -1.97080514398514        0.49258837807108
C           -3.46007729858818       -0.16276227072011       -0.71090208311306
H           -1.74958108846569       -1.27841508756394        1.22549659095068
H           -3.10241907143416       -2.34986704783119        0.86896441429982
H           -1.46389454216748       -2.79749255360213        0.35842865910815
O           -3.29316340860362        0.85569027462314       -1.56976103306105
N           -4.37143982359458       -0.31717131337065        0.13638237476954
H           -6.88651398401309       -0.34622120542845        2.19062939150559
C           -5.50960449238711        0.53919853432813        0.36971453085731
H           -5.41473342016240        0.87059243512758        1.41496579438824
C           -5.70666309740806        1.75682283652869       -0.54317381178362
C           -6.71369091027057       -0.37555480745612        0.25190493577495
H           -4.81848017556346        2.38734793328960       -0.49822434054070
H           -5.81255988336374        1.38156724468141       -1.56070020422841
C           -6.94261096048079        2.58826477114278       -0.17883890516658
O           -7.36588120675862       -0.69190252200203        1.42816732956227
H           -7.79907411431234        1.91621628287747       -0.05192265295560
C           -6.73831779619378        3.37760554276478        1.11340397234149
C           -7.26304406506833        3.54717108849720       -1.32350596802279
H           -5.89813523637632        4.06094098435146        1.00771161216700
H           -7.62702844552954        3.96168334123937        1.34160923204290
H           -6.54224543744631        2.72422135517138        1.96070337206397
H           -7.47619135587869        2.99305517786645       -2.23392095407186
H           -8.13173403895500        4.15506346885790       -1.08122358432704
H           -6.41981679087735        4.20866097734033       -1.51061250814144
N           -7.03415434264900       -0.81234730385037       -0.87336333382977
H           -9.04284175143872       -0.60436319559849        0.73690478600653
C           -8.10511062817279       -1.72168927234820       -1.18628635063613
H           -7.96563175920268       -1.97943987150537       -2.24256863372274
C           -8.11115989650722       -3.00991763391261       -0.35171629742991
C           -9.48692819428756       -1.05853501136042       -1.07798934509447
H           -8.32337311215887       -2.80701191883819        0.69566648627337
H           -8.86607726865318       -3.68883047199250       -0.74039781005062
H           -7.13545750924651       -3.48563995681396       -0.42072427579756
O           -9.77323567358309       -0.50107869869429        0.09867791124212
O          -10.27280039054172       -1.05918253449077       -1.98173500293826
