42
 energy: -62.486133507272 gnorm: 0.000480739670 xtb: 6.7.1 (edcfbbe)
N           -0.74598502945773       -0.42103486159835       -0.14316739872517
H            0.08915787573405       -0.47155738304688       -0.71310145152053
H           -0.68488917889528       -1.15848596290696        0.55347374651688
H           -1.77278148418571        0.88762270948898        0.79923465109334
C           -1.94945034255949       -0.60118035877368       -0.95564346208268
H           -1.82265373991106       -0.00890846241441       -1.87014681955699
C           -2.25500551135785       -2.04860704820972       -1.33383648786732
C           -3.10907033590102        0.02648018066147       -0.19458334639006
H           -2.33160655257773       -2.66303478193461       -0.43833449628598
H           -3.20355657536824       -2.08730631952113       -1.85863313517448
H           -1.47061558885538       -2.45122337345389       -1.97125463821087
O           -2.75173812683788        0.89197356036630        0.77343949248164
N           -4.28946551047494       -0.26984094839200       -0.50819361228170
H           -5.42018371233660       -1.52329405442829        1.64895736743025
C           -5.41739227896329        0.35613200609104        0.15644515069802
H           -5.14614798318275        0.68832480379283        1.17159555910301
C           -5.87599993807315        1.56123588285625       -0.67256565161656
C           -6.47043340659273       -0.72316170158827        0.25735087304834
H           -5.02737194595387        2.24372344836842       -0.75987611568291
H           -6.12059165712647        1.19602156719481       -1.67038024762118
C           -7.07441686399079        2.31496881123448       -0.08786272020363
O           -6.27077846835545       -1.65850889744465        1.21374396103351
H           -7.86886963472149        1.59395632932160        0.12450594531187
C           -6.70902465272068        3.04022713275193        1.20575086049577
C           -7.59205993243797        3.31701577870694       -1.11843288013355
H           -5.87673663449942        3.72090124433767        1.03823164731111
H           -7.55714107906311        3.61877173796007        1.56483581061809
H           -6.42813061090312        2.33947810865582        1.98786532487915
H           -7.89516738731123        2.80980143735593       -2.03096491938858
H           -8.45067968131084        3.85692374089381       -0.72635254143659
H           -6.81764755226301        4.03997447054536       -1.36644995986672
N           -7.43480379790669       -0.76113077137516       -0.54669416612428
H           -8.18699791394223       -0.18546173001731       -2.07693489982170
C           -8.43239695827253       -1.80431679907462       -0.51680041135899
H           -7.98155728777772       -2.79916770385812       -0.41250189142541
C           -9.43813151137393       -1.59533319701880        0.62090241378973
C           -9.19079922907487       -1.73740355388231       -1.85228348781952
H           -9.86736113514879       -0.59705579690451        0.55909794909354
H          -10.23413647064252       -2.32948285854005        0.53478116642495
H           -8.94166136289318       -1.70999692695114        1.58114128998346
O           -8.88856642337799       -0.66775412814947       -2.57680800593356
O           -9.99334564605661       -2.56231115736732       -2.19061537034320
