42
 energy: -62.486133520272 gnorm: 0.000478883683 xtb: 6.7.1 (edcfbbe)
N           -2.18955950568904       -2.48218999539893       -0.63745183207896
H           -1.23508157961924       -2.81983056430033       -0.63121609966558
H           -2.54590926648101       -2.58855123180172       -1.58318881352627
H           -3.84819457878092       -2.61889793170513        0.30230994924536
C           -2.24664559105645       -1.07406841745380       -0.24842684258594
H           -1.67075833300395       -0.97123733504908        0.68046013092841
C           -1.69988322336410       -0.10362047732911       -1.29166182691607
C           -3.70318019341249       -0.76299490667413        0.08994477196970
H           -2.24863033831768       -0.21225635340725       -2.22447829625149
H           -1.82823516143933        0.91299603614792       -0.93775662839607
H           -0.64402828340190       -0.29454369761996       -1.47433493997690
O           -4.41882268143183       -1.83875154628160        0.45968466757336
N           -4.07382870784607        0.43443365639566        0.07243551465146
H           -6.60280599337413        0.63541692504889        2.37121157297290
C           -5.40397936555109        0.94857210675918        0.25886319015936
H           -5.32826798801682        1.65826237491639        1.09651186550511
C           -5.76254041802134        1.72557111150600       -1.02132072425615
C           -6.49590465848122       -0.05639418070275        0.54918623764204
H           -4.92311767135625        2.37849553562395       -1.26299986561390
H           -5.86773938562785        0.98602697483080       -1.81533481275746
C           -7.05308070592821        2.54399875752245       -0.91564238722982
O           -7.07014323086250        0.00783435637047        1.80724491619588
H           -7.84872333564631        1.90046323053760       -0.52395300116670
C           -6.89150319197297        3.74962029716534        0.00830769784913
C           -7.46854622827332        3.01282151035986       -2.30861606705655
H           -6.09714410977026        4.39851359354075       -0.35459067238154
H           -7.81482203866762        4.32340243289351        0.04099074248798
H           -6.64977715804195        3.44976851757171        1.02533267372452
H           -7.63973868357675        2.16077810583495       -2.96129627270897
H           -8.38630430989943        3.59366365590307       -2.25733184631901
H           -6.69077562881858        3.63478983786787       -2.74683166253668
N           -6.82644949069427       -0.87320648691144       -0.33689395880014
H           -8.77915845575504       -0.26869208257913        1.22717862448810
C           -7.81642709014473       -1.91270106844341       -0.23907343458034
H           -7.68417852233687       -2.52298926465321       -1.13998750319575
C           -7.68481948180231       -2.80929869814826        0.99939641900189
C           -9.24179526804352       -1.34583872990583       -0.29490970824546
H           -7.93596254921112       -2.27288294522402        1.91179637517753
H           -8.34721903508476       -3.66542134969024        0.89912268026769
H           -6.65682863844952       -3.15487225742669        1.07581423308077
O           -9.53628202383569       -0.43568399985067        0.63502688139813
O          -10.04939912918852       -1.70253114302337       -1.10458684455841
