42
 energy: -62.486133508373 gnorm: 0.000480605688 xtb: 6.7.1 (edcfbbe)
N           -1.06995962689110       -1.09171194014250        0.80999955285721
H           -0.08047448125008       -1.16018291428140        0.60657965501859
H           -1.39330789805821       -2.01764927546434        1.07740456723934
H           -2.28463643628923        0.01813830832148        1.81544751414534
C           -1.81638105438099       -0.61832414142292       -0.35369733642537
H           -1.27591023055365        0.24731232219271       -0.75800961499011
C           -2.00022764889330       -1.65408372003572       -1.46207257212461
C           -3.15149323124550       -0.09300937716317        0.15761479165901
H           -2.52392454921563       -2.52857348834643       -1.07976444810906
H           -2.58111202887684       -1.22289648809535       -2.27048964150218
H           -1.03283844002850       -1.96771305273520       -1.84933115118174
O           -3.16096647490672        0.25729711268296        1.45021192158133
N           -4.12255693301349        0.01970517106800       -0.63707786235838
H           -4.98557406515523       -1.56267731639376       -1.18188509462063
C           -5.41524604568592        0.50242141105908       -0.18919625668504
H           -5.41075608846398        0.77424408618164        0.87289083208959
C           -5.72999860694657        1.74224713536027       -1.04763818912520
C           -6.40836254941781       -0.62570361306487       -0.39634928298951
H           -4.94370249068740        2.47294375122699       -0.84191674356360
H           -5.63791168990190        1.44628355670058       -2.09503060462715
C           -7.09367495994426        2.39919837388667       -0.82862814190568
O           -5.91376378196317       -1.75098359244239       -0.93860800389594
H           -7.87076861292557        1.68819670902241       -1.11851981844069
C           -7.30824633804123        2.80001195664127        0.62819546362616
C           -7.20836199091232        3.62674670230660       -1.73181979317848
H           -6.52069062589331        3.47584646481582        0.95615597155419
H           -8.26323811235586        3.30777715080716        0.73912672913151
H           -7.30853604253342        1.92730929585922        1.27523787362844
H           -7.05907959455511        3.35528474808029       -2.77418681994643
H           -8.19377957411567        4.07481835155027       -1.63329946461262
H           -6.46353028389741        4.37244696754179       -1.46074353285097
N           -7.62959020951957       -0.45475547666285       -0.13301266250300
H           -9.04221432761051        0.59577297201293        0.40617868667803
C           -8.59974961111888       -1.50281457894101       -0.36335185263702
H           -8.48714841653628       -1.94494927474928       -1.36154444945165
C           -8.50147196947904       -2.61995836218981        0.68236177747144
C           -9.99384797524970       -0.87033101064488       -0.25351131035590
H           -8.56775379919474       -2.19847562089584        1.68363978220786
H           -9.31841961647969       -3.32100562742692        0.53606195857659
H           -7.55364414884921       -3.14173939387305        0.57814467217533
O           -9.98553212875352        0.35286709373245        0.26211484694894
O          -10.99780856799767       -1.44135720421113       -0.57874690739112
