42
 energy: -62.486133499062 gnorm: 0.000481774588 xtb: 6.7.1 (edcfbbe)
N           -1.77360947222167       -1.46006210324190        1.18282901526817
H           -1.30978253825605       -0.64446721799513        1.56878030085517
H           -1.07842072866740       -2.18713463156719        1.06624071363260
H           -3.59116132542217       -1.24663649976716        1.88380133119270
C           -2.40770942725915       -1.13825843577386       -0.09323378232307
H           -1.79165107213683       -0.51343048449070       -0.75524525606545
C           -2.77865773848301       -2.43024505751472       -0.82387207935682
C           -3.68920132060215       -0.38920661176495        0.22333624798915
H           -3.41047130428071       -3.04960560511781       -0.19060318642491
H           -3.31725280679149       -2.19408124268292       -1.73685416429362
H           -1.88207064574367       -2.99090183214212       -1.07941835666454
O           -4.22852354652370       -0.66935870820010        1.41626016849149
N           -4.16965654118246        0.40438373163595       -0.62845994780276
H           -5.87505298797441        0.01513955775458       -2.47274478879376
C           -5.44682351946316        1.05164053984470       -0.36739546138972
H           -5.54367718721084        1.31650853610857        0.69127329878678
C           -5.56492794594894        2.29393405242013       -1.25622385304630
C           -6.49816510775555        0.01327673005736       -0.67509482224858
H           -4.87727149099556        3.04906660521027       -0.87143702737502
H           -5.22468858535826        2.04070362625418       -2.26437121386953
C           -6.98189681504985        2.87491829925140       -1.32279784467229
O           -6.55395937214188       -0.42927225477213       -1.94779830259658
H           -7.65946273360767        2.11266276744748       -1.72448247872827
C           -7.48828217614085        3.28305583155811        0.05831108822387
C           -6.99498688614839        4.07604585875422       -2.26696676786341
H           -6.79576824542206        3.97936769564494        0.52672641327787
H           -8.45704092164850        3.76969304533637       -0.02804360346907
H           -7.60265102838667        2.41495757832808        0.70183142965252
H           -6.64676136114935        3.79524421279917       -3.25872423200602
H           -8.00174985810369        4.47600777032836       -2.35945139406561
H           -6.34737609286231        4.86275237004596       -1.88592772206178
N           -7.20179505225805       -0.44902329330415        0.25920777208998
H           -7.74593860513268       -0.40928060285147        1.98722400356035
C           -8.15997987908892       -1.51119261265054        0.05349164129649
H           -8.80232919829111       -1.32056054721956       -0.81509991539008
C           -7.47039514740782       -2.86876261023923       -0.12586993424851
C           -9.03198529680212       -1.57914703309916        1.31614313877938
H           -6.78967273188272       -3.04702053457816        0.70456798205561
H           -8.22134274533517       -3.65354448103267       -0.14735197423384
H           -6.90782230556296       -2.87922423008863       -1.05603625009133
O           -8.55391098512664       -0.86301525919697        2.32570007122705
O          -10.03230851864123       -2.23795272311688        1.38671482218163
