42
 energy: -62.486133515094 gnorm: 0.000479872728 xtb: 6.7.1 (edcfbbe)
N           -2.15452188488681       -2.41297800294671       -0.80567284652015
H           -1.22974184452962       -2.79994300837957       -0.66349261985311
H           -2.30567751176983       -2.33868053139616       -1.80794277513895
H           -3.95153656852022       -2.64989918668660       -0.26287562645882
C           -2.27240087668021       -1.09199011959050       -0.18999818053525
H           -1.84162024176783       -1.16007730452070        0.81679469922073
C           -1.58003530026457        0.02901903708680       -0.96121686353605
C           -3.76517033854800       -0.80377807580808       -0.01868738858919
H           -1.97956077602679        0.08675708230224       -1.97178568120799
H           -1.76801476522828        0.97476306766240       -0.46519176763315
H           -0.50729981191271       -0.14754636688611       -1.01259958011566
O           -4.54003806990594       -1.89799835502246       -0.03947830632451
N           -4.11169003369757        0.38327761241216        0.19233225499475
H           -6.40684664681946        0.44211931010098        2.46511617866407
C           -5.44675001909173        0.91602806860352        0.28220209071754
H           -5.39737123368929        1.66034298679352        1.09128028627186
C           -5.74440098940200        1.63878689294667       -1.04249015705250
C           -6.55105448317984       -0.07094320758033        0.58765043663399
H           -4.87528877213552        2.24739310377715       -1.29674242222600
H           -5.86566185387695        0.86543708992428       -1.80099491438338
C           -7.00206816428241        2.51257149582064       -1.00254329659667
O           -6.96160603658009       -0.11954579558785        1.91059420639553
H           -7.82226700778801        1.92702243050491       -0.57348270289345
C           -6.79703516872093        3.77009212951287       -0.16013642937785
C           -7.39183420132288        2.90173973043308       -2.42706664786560
H           -5.97670840886046        4.36269041764813       -0.55988422968286
H           -7.69750557549112        4.37984067513151       -0.17147839689325
H           -6.57137982815136        3.52823095505979        0.87565547216539
H           -7.59602024265602        2.01450307413332       -3.02055504967770
H           -8.28457937441884        3.52241074260230       -2.42183271602417
H           -6.58705720117700        3.45969051936189       -2.90144286284759
N           -7.01211667725357       -0.79280063365312       -0.32105319850999
H           -8.73468530287147       -0.30614388145458        1.52919264679460
C           -8.01668312982480       -1.81537570862299       -0.20158077364202
H           -8.01871633704058       -2.33191117400670       -1.16833860384145
C           -7.75645856833980       -2.83759761667566        0.91304628024950
C           -9.41969255633864       -1.22114503090338       -0.01540527464576
H           -7.86053014639465       -2.39056434479525        1.89934334924033
H           -8.46036537221429       -3.66098831013110        0.82189538487305
H           -6.74260477869242       -3.21679410713292        0.81100474582750
O           -9.56637290307699       -0.40381984504920        1.02868708725903
O          -10.33522223495014       -1.48422159003869       -0.74189076947094
