42
 energy: -62.486133515984 gnorm: 0.000479364982 xtb: 6.7.1 (edcfbbe)
N           -0.90892786698823       -0.46885337004362       -0.00371214728334
H           -0.12244366637121       -0.99301316461609       -0.36717353480345
H           -0.84686713632942       -0.48905614277030        1.01066053775049
H           -1.79764907495710        1.19948734414326       -0.23338625997650
C           -2.17594342148823       -1.05999485833334       -0.43227756954584
H           -2.08967382075106       -1.27129757609129       -1.50612534995137
C           -2.56311492156251       -2.34064134989092        0.30303081485834
C           -3.25050771777899        0.01406623636644       -0.28193701531415
H           -2.61171473626603       -2.15541538356378        1.37410580909088
H           -3.54285702398002       -2.66541181944098       -0.02984702406427
H           -1.83501318540409       -3.12624016962050        0.11097655269210
O           -2.77497442752729        1.27104399972266       -0.22621685268311
N           -4.45178236074506       -0.34409899078193       -0.23037443706130
H           -5.94753131982609       -0.22871193985279       -2.37090496219087
C           -5.59631225339788        0.53353336921946       -0.11934587289714
H           -5.77553292098388        0.70660034581566        0.94727931344422
C           -5.50060768331313        1.88193812348516       -0.85270761369694
C           -6.75438471427214       -0.28827579055622       -0.64611473348607
H           -4.76319300466226        2.50243021218300       -0.34317394540646
H           -5.13038157960087        1.71449713617518       -1.87002926531389
C           -6.83528784664816        2.63445046949632       -0.92130955218469
O           -6.74640662526826       -0.58212507096188       -1.96057230164930
H           -7.56898433624162        2.01714111215401       -1.45252381747207
C           -7.38391359586689        2.93833209053574        0.47056161584643
C           -6.64066073634896        3.93180092339960       -1.70502687796135
H           -6.63947024213938        3.46225347018835        1.06644816504622
H           -8.26638379642232        3.56914525515962        0.39350097454824
H           -7.66806769030829        2.02440958065536        0.98511870598846
H           -6.26441249754742        3.72985808200204       -2.70578873609894
H           -7.58334135123079        4.46565849627641       -1.79673253022229
H           -5.92882799879394        4.57720077725478       -1.19474294155793
N           -7.62821050425838       -0.71459577015748        0.15300164014080
H           -8.45607277806786       -0.64581921286237        1.76480593958924
C           -8.72802047828016       -1.54311293889511       -0.29128435668560
H           -9.15720798246442       -1.18550866112136       -1.23539349133208
C           -8.29379796861609       -3.00279808569585       -0.46549086558514
C           -9.80730168828751       -1.48785025749191        0.79939811915018
H           -7.82770669089054       -3.36199030862057        0.44973270658117
H           -9.16487217882226       -3.61302968995779       -0.68703691790290
H           -7.57879926225312       -3.08018866596404       -1.28045232751551
O           -9.38376006818889       -0.93588610879885        1.93067129317264
O          -10.91527209855523       -1.92195753222834        0.64932412937442
