42
 energy: -62.486133508559 gnorm: 0.000480156206 xtb: 6.7.1 (edcfbbe)
N           -1.35045850838781       -1.36355704705634        0.49012931415989
H           -0.76696699672784       -0.55018809967701        0.65555918716897
H           -0.74441151797863       -2.13577705780557        0.24075131210023
H           -2.84270798601745       -1.06847890010968        1.65769624096662
C           -2.31843365559017       -1.09909021990597       -0.57419063858881
H           -1.91830205659679       -0.49947399495895       -1.40254536407563
C           -2.86288622326100       -2.41656673709403       -1.12843692369924
C           -3.47639690244727       -0.34341475016801        0.04775257547798
H           -3.26974996036211       -3.02375393141254       -0.32236996638578
H           -3.65143120986982       -2.20598506969007       -1.84464207808347
H           -2.07231937904785       -2.97542311084344       -1.62461609962799
O           -3.62089269125807       -0.54002579543500        1.38104400416373
N           -4.21770002621658        0.36765297305902       -0.67229630150581
H           -5.65381241004052       -0.37209150725366        1.85628768684979
C           -5.38986930574204        1.02639010981202       -0.12132459889474
H           -5.14822433483915        1.49896129804016        0.84325279160113
C           -5.83066974304944        2.07764675459166       -1.14231948256731
C           -6.42290304813872       -0.05189231963612        0.11628546293820
H           -5.04945134135215        2.83915494434357       -1.18036698339452
H           -5.86657152880570        1.58054729654869       -2.11071262139506
C           -7.18259856147577        2.74298665472608       -0.86963907652218
O           -6.42955920776660       -0.63066051542528        1.33741771378643
H           -7.96765815683094        2.00058700885572       -1.04696565354432
C           -7.30428344191722        3.25946665169125        0.56238502062155
C           -7.38528210680243        3.88875735052326       -1.86002941333069
H           -6.47297523117732        3.92027627232292        0.80020759544330
H           -8.22892718241237        3.82013329879078        0.68130243000217
H           -7.31699475652199        2.44252132204761        1.27996226624382
H           -7.29038025456321        3.52992516900632       -2.88169063379149
H           -8.37279485764543        4.32816425713533       -1.73979908641703
H           -6.64231447540824        4.66677746335814       -1.69817802114453
N           -7.17504157956738       -0.42084771412905       -0.82579083426541
H           -8.94728900208742        0.54039145315266        0.11945895537795
C           -8.08680721932402       -1.53438829040377       -0.65652105832048
H           -8.70928585110287       -1.54447157754853       -1.56462673432904
C           -7.36710259563856       -2.87644073190958       -0.53284346701575
C           -9.05000623984257       -1.33211680173911        0.51980551006832
H           -6.74708655054102       -2.88250324675042        0.35933548415616
H           -8.10242700175603       -3.67116328423218       -0.44848074564185
H           -6.74328631112113       -3.04298526793911       -1.40746518194007
O           -9.41607279942195       -0.05769621011149        0.72350761992978
O           -9.49385905281595       -2.22337391766649        1.18264492840880
