42
 energy: -62.486133506610 gnorm: 0.000480914474 xtb: 6.7.1 (edcfbbe)
N           -2.07159236047866       -2.34566964090386       -0.98755402567750
H           -1.10727945940113       -2.65366275452613       -0.95751179116933
H           -2.35604149180465       -2.31921769218009       -1.96311717516974
H           -3.76870877413444       -2.68965174743422       -0.21107568081201
C           -2.21683229817806       -1.01656221976541       -0.39615756020591
H           -1.67931929995730       -1.02486973198564        0.56069167564014
C           -1.68619599843404        0.12235746153679       -1.26413199251319
C           -3.70195577467703       -0.82434615866483       -0.07300209205558
H           -2.19321430982187        0.12312074226151       -2.22706117243328
H           -1.88302835477938        1.06879194053531       -0.77286152798429
H           -0.61533590571451        0.01294913568015       -1.42619863379843
O           -4.37970880860162       -1.97144185434520        0.05604828199399
N           -4.10049275840627        0.34724916094630        0.13001809614006
H           -6.99878981744636        0.92452597628277        2.19033745942356
C           -5.42477596973707        0.86004684364019        0.32573221132790
H           -5.33452084149848        1.54743686939304        1.18022030633445
C           -5.77001770268400        1.67880951794983       -0.93765028304939
C           -6.56232355431852       -0.10337551622603        0.58267700335588
H           -4.91657365221446        2.31907982692599       -1.16508511091292
H           -5.88774330895263        0.96023231184777       -1.74997840987774
C           -7.04138501902376        2.52545821042738       -0.81687084518208
O           -7.34138796559824        0.16703612451032        1.70134973017336
H           -7.85501675880703        1.89758321587991       -0.43659172913752
C           -6.84794406999825        3.71353570080186        0.12403246614996
C           -7.44790326867902        3.02717796383423       -2.20126196808941
H           -6.05574635358946        4.36035823144413       -0.24693874329113
H           -7.76423104391113        4.29605378540768        0.18724078538280
H           -6.58283726659480        3.39713846469816        1.13043441314446
H           -7.64703456937156        2.19095821923738       -2.86656536160259
H           -8.34785574171882        3.63417660951461       -2.13691902049636
H           -6.65391741922587        3.63253069408778       -2.63355635914892
N           -6.75013762782375       -1.06713120022096       -0.18597338617764
H           -8.92654695370155       -0.27143062536831        0.95064445369303
C           -7.74782431819727       -2.09697181659083       -0.08519148107637
H           -7.48104363979254       -2.83227080298494       -0.85297163508374
C           -7.79495079529001       -2.79476380933296        1.28062860988848
C           -9.15153848835411       -1.58371625467008       -0.43432454768916
H           -8.13253606874581       -2.11917797369634        2.06382582121835
H           -8.47026920209336       -3.64537036709180        1.23138470207776
H           -6.79591637037144       -3.14406501769607        1.53083640043696
O           -9.58761087080836       -0.55130749196862        0.28901097821363
O           -9.82810699578959       -2.08362996300650       -1.28762770805954
