42
 energy: -62.486133515876 gnorm: 0.000479679599 xtb: 6.7.1 (edcfbbe)
N           -1.67721660668591       -0.45318837478665        1.19988864146478
H           -0.82639607253202       -0.99417625689451        1.09934505911706
H           -1.98663623576848       -0.55240260385225        2.16321957848459
H           -2.40941821676535        1.29023998476282        0.71811512863597
C           -2.71772252730024       -0.95378529476229        0.29979480233749
H           -2.27148362645866       -1.00868686544188       -0.70282269041123
C           -3.29046783648545       -2.31826725630333        0.67037965925606
C           -3.79705656216181        0.11631274418848        0.23457450490656
H           -3.74664069416878       -2.28120826094060        1.65631995597709
H           -4.05469270549617       -2.59720023264897       -0.04577404167333
H           -2.50461789080666       -3.07092759422904        0.66987722860189
O           -3.34350056270573        1.37158522588206        0.44143046190533
N           -4.98376687582008       -0.21914222697119        0.01067407926688
H           -8.14765899294569        1.33912192284828       -1.34269385926716
C           -6.07977459782316        0.71010248026429       -0.12414065553562
H           -6.26399094486872        1.18415636383416        0.85231263310340
C           -5.84682691680901        1.81426889527850       -1.17761184279513
C           -7.29669017714215       -0.14020648480104       -0.45179782450113
H           -4.77469093633244        1.99336380706027       -1.25259934429556
H           -6.17332808752951        1.44765140736529       -2.15584094763092
C           -6.52797373303257        3.15211606193291       -0.84248903966089
O           -8.33476360086972        0.42122930627013       -1.10896133451383
H           -7.51991898365619        2.97459401866238       -0.40462092945896
C           -5.70312466915845        3.92720899572819        0.18275148637563
C           -6.70380724381817        3.98503924195428       -2.11173373867871
H           -4.74074729910810        4.20296986741448       -0.24158579802579
H           -6.22206757283376        4.83433011253868        0.48410012531235
H           -5.51870998881319        3.32525027386832        1.06875398552524
H           -7.34524562931664        3.48016968270705       -2.83222678626920
H           -7.15046758663007        4.94801740553652       -1.87562519221732
H           -5.73837648037594        4.16221942640394       -2.58024514950587
N           -7.29875854862112       -1.33096855307745       -0.05549146422719
H           -6.39801403817036       -2.58904020135755        0.78541064571693
C           -8.36726409005382       -2.27174139210306       -0.26854827074423
H           -9.31755290719508       -1.89926826904848        0.13583082851024
C           -8.56684644019123       -2.63299541966302       -1.74392408508598
C           -7.97150948385259       -3.54506552605814        0.50409902961131
H           -7.61924011595738       -2.94558044660362       -2.17817348976072
H           -9.27920772602177       -3.44993664561438       -1.81737474365583
H           -8.94286725830040       -1.77333173096094       -2.29222645330120
O           -6.75086956789365       -3.48867102126328        1.01605120776437
O           -8.69628127583992       -4.49618273324544        0.61251438480942
