42
 energy: -62.486133495641 gnorm: 0.000482442946 xtb: 6.7.1 (edcfbbe)
N           -1.02926946611982       -0.50621083655524       -1.12104600705373
H           -0.37360737463984       -1.15143636711229       -1.54500162110743
H           -0.62798993388789       -0.19680576362434       -0.23976346827872
H           -2.12595540557196        1.01350682586484       -1.59178093016084
C           -2.31646553178540       -1.15611019930698       -0.87747702632615
H           -2.60761972351362       -1.65583129101958       -1.81055757362121
C           -2.31303288886792       -2.17714488497276        0.25682943702990
C           -3.34720977588471       -0.05431424086293       -0.64726097565588
H           -2.00255852524702       -1.70412814153216        1.18623154974673
H           -3.31644778193014       -2.56616133575083        0.38869290919057
H           -1.63278564919095       -2.99598856587287        0.03074132268724
O           -3.01790338379428        1.12414159869385       -1.20520512921486
N           -4.37846042923644       -0.33317029149086        0.00824458247928
H           -6.78088505288894       -0.32811853821182        2.19097758082571
C           -5.49638939234496        0.53506356047381        0.29204211413488
H           -5.35465156318905        0.89615154916512        1.32202755310438
C           -5.72394318492918        1.72854696649854       -0.64692932657585
C           -6.71025109451504       -0.37286029541059        0.24544263761871
H           -4.84501211327859        2.37210865236806       -0.63074700345099
H           -5.83854785769852        1.32244871957397       -1.65232603638544
C           -6.96473437791986        2.55552889700396       -0.29082790736215
O           -7.30560541929390       -0.67017180931421        1.45756615578851
H           -7.82286494285804        1.88331683516512       -0.18019951612919
C           -6.77660213667484        3.33431689449612        1.01026089129754
C           -7.26859711932014        3.52376537659613       -1.43213230294142
H           -5.91100201154396        3.98962929569030        0.93562172253045
H           -7.65282236196701        3.94658201560430        1.21110104874458
H           -6.63259274444033        2.67201241032392        1.86114497480777
H           -7.45537944767888        2.97779316344497       -2.35310701393991
H           -8.14892822019883        4.11982178313933       -1.20328699126687
H           -6.42834993012125        4.19610204896146       -1.59255383537352
N           -7.09111752090838       -0.81998698600187       -0.85635214710993
H           -9.01845440885000       -0.59191839370550        0.85677326406864
C           -8.18317264210933       -1.72421461302650       -1.10433304189616
H           -8.09941541268342       -1.99482106477137       -2.16329822202747
C           -8.15822266528570       -3.00329025710822       -0.25634497490354
C           -9.55092641462966       -1.04507018459549       -0.93470228768431
H           -8.30320761206182       -2.78641206843640        0.79963202637219
H           -8.94552132451821       -3.67436830273863       -0.59086818921462
H           -7.19595048687239       -3.49500920280677       -0.37934126902303
O           -9.77849659735276       -0.48677925347907        0.25449929574920
O          -10.37524133497887       -1.03253950784071       -1.80345117885367
