42
 energy: -62.486133511203 gnorm: 0.000480494976 xtb: 6.7.1 (edcfbbe)
N           -2.97562858184077       -1.81852891767313        1.97762158158916
H           -2.06225173455488       -2.21525769289453        2.16093223484224
H           -3.63623990934135       -2.58916568960360        1.90492170756097
H           -4.24858083313460       -0.54870455415866        2.58065115219897
C           -2.97199635872318       -1.05359787497577        0.73173939162544
H           -2.10879005777045       -0.37600803751410        0.76213697394066
C           -2.90520697116745       -1.90383316493945       -0.53616638753697
C           -4.22525004842245       -0.19219824666823        0.74036654572036
H           -3.71891690127724       -2.62595172055982       -0.54029142228746
H           -3.00775378442671       -1.26341240955809       -1.40537084646957
H           -1.95868729830324       -2.43814006611364       -0.58702332887117
O           -4.77987755385416       -0.01512875064675        1.95284188069613
N           -4.66882726679284        0.29434635287703       -0.33243703475576
H           -8.18617539162482        1.38042204612571       -1.18015576815876
C           -5.90668709749386        1.03700687008816       -0.32103317926341
H           -6.02964200947928        1.58071366078523        0.63016137756898
C           -5.90902253209449        2.02728164986326       -1.49819514903772
C           -7.05641829310528        0.04521808740455       -0.38733034619907
H           -4.86720427304398        2.19489513945584       -1.77467680481460
H           -6.38928210247061        1.56507834145111       -2.36513256758700
C           -6.56439926067827        3.37982667846328       -1.17866763159023
O           -8.23736567024559        0.46270775871334       -0.88274145888799
H           -7.49047233410673        3.22185171886027       -0.60841971100186
C           -5.63379371448712        4.23967916598886       -0.32584652728224
C           -6.91734509682570        4.11355841692168       -2.47158227685264
H           -4.72991291352000        4.47832525724471       -0.88160434870760
H           -6.12274893629098        5.17039621400910       -0.04721454753459
H           -5.34610046260983        3.71938868168820        0.58444717213747
H           -7.62204034202887        3.54004585124325       -3.07102609586023
H           -7.36567034457673        5.07939840710128       -2.25068363525947
H           -6.02130678484232        4.27995327152304       -3.06490913675582
N           -6.86495223663922       -1.11392802399449        0.05835577063328
H           -5.79518798250187       -2.11288801644743        0.95055429016879
C           -7.84387131364047       -2.16967643604001        0.09460656007830
H           -8.76427524950889       -1.85083401130173        0.60087373667974
C           -8.19906697580872       -2.69688664838465       -1.29853494312433
C           -7.20453670636947       -3.30772735073941        0.91278428265502
H           -7.28971756459718       -2.95190360180667       -1.83939474226264
H           -8.81460755541381       -3.58625544148815       -1.19654951610637
H           -8.74324623107572       -1.93983385724377       -1.85690208161135
O           -5.95816668236444       -3.03615300103823        1.28838914487738
O           -7.76496793557682       -4.33610623330342        1.16944150078466
