42
 energy: -62.486132249030 gnorm: 0.000632030975 xtb: 6.7.1 (edcfbbe)
N           -0.75824038574124       -0.96049596318904       -0.77780984317838
H           -0.18764032144721       -1.79772438580622       -0.76810407972460
H           -0.40137756494455       -0.33587774752191       -0.06021271317021
H           -1.49519876671624        0.35723815060127       -2.00637451581308
C           -2.15940823079172       -1.27309124021357       -0.51176445582326
H           -2.43605589786499       -2.08636504722501       -1.19801925241519
C           -2.45178015038022       -1.69475287292197        0.92796761274925
C           -2.98855717293999       -0.03284302795138       -0.91438900310713
H           -2.19865984825364       -0.88597567273945        1.61045311550613
H           -3.50383914762623       -1.93091794044979        1.05757730782052
H           -1.86596474157222       -2.57348709057162        1.19061859629431
O           -2.38967780079293        0.72261077110111       -1.86098728982043
N           -4.05182264572813        0.28306441439347       -0.37750615908409
H           -4.71497666340612       -1.54337169644837       -0.91797171084881
C           -5.38634471579618        0.56490743759288       -0.04821760031816
H           -5.46135859886170        0.58145757225698        1.04885231848237
C           -5.77221430943871        1.95676878651207       -0.60861708000713
C           -6.28645732191782       -0.56109410872114       -0.54448585156482
H           -5.02940659909170        2.65017403471682       -0.20635279840578
H           -5.62985282470788        1.92287198555252       -1.69053070506283
C           -7.16970103330083        2.50100958112102       -0.30539345989018
O           -5.67452316027130       -1.68382734880704       -0.96442069659152
H           -7.89633539726791        1.93530901568531       -0.89151265555604
C           -7.52565748755630        2.38896382958368        1.17460160283820
C           -7.24143140621501        3.96169237988471       -0.75082519229091
H           -6.78235267089904        2.89973113677975        1.78387888518014
H           -8.49294281860303        2.84926983816959        1.36170245595450
H           -7.57748808097458        1.34863336474967        1.48477051271450
H           -6.98008824275421        4.05618726418854       -1.80194524920682
H           -8.24754293459853        4.34968448688496       -0.61227775309060
H           -6.55419723850844        4.57373730374028       -0.17004351795758
N           -7.53806287514060       -0.42122306312516       -0.54851671464539
H           -9.12292923395099        0.49758269769717       -0.13049993695480
C           -8.40262746626379       -1.48476677447847       -1.01528810850335
H           -8.07815704203287       -1.86960750145737       -1.98968690656603
C           -8.47139144436738       -2.65259962880406       -0.02213291910405
C           -9.81940810656004       -0.91149993341968       -1.14713416209314
H           -8.76078998982267       -2.28835378396752        0.96202139997338
H           -9.20956750387039       -3.37179605193597       -0.36589631120484
H           -7.50179508180646       -3.13813849049181        0.04870850528820
O           -9.99545983134464        0.23138038775248       -0.49466314397305
O          -10.69490749741909       -1.46615259589274       -1.75049626594850
