42
 energy: -62.486133509874 gnorm: 0.000480638794 xtb: 6.7.1 (edcfbbe)
N           -1.48533585113512       -0.23623618774059        0.62251758553820
H           -0.74439656571634       -0.79080008571719        1.03826643875134
H           -2.13523186869039        0.02987772250476        1.35478392615960
H           -2.99000202963755       -0.38382584012164       -2.60298312260611
C           -2.19530435949633       -1.01361283747522       -0.37502877032826
H           -1.54788537259349       -1.07403483369246       -1.26374009609470
C           -2.55962254870008       -2.44038264531256        0.07404201633182
C           -3.47900418887968       -0.29362023618632       -0.72508938691800
H           -3.20807338705713       -2.38766492534800        0.94524557542733
H           -3.08165704907845       -2.97473704112763       -0.71666827514798
H           -1.65754228432094       -2.99259124659347        0.32960752726658
O           -3.73956593774309       -0.10994599511464       -2.05999719312269
N           -4.22877161535562        0.05984960308904        0.21138910916875
H           -5.64398331155437       -0.11695625641298       -2.20475331567807
C           -5.51043164228861        0.72018477653817        0.09760059762352
H           -5.82094311288531        0.89628634305473        1.13214681623972
C           -5.43712955481047        2.05974392510692       -0.65268963701874
C           -6.54156428292899       -0.20247990382998       -0.51856232852554
H           -4.74346403220721        2.70620332987601       -0.11046419220775
H           -5.01961064667404        1.90032718128567       -1.65010306941282
C           -6.79477368111102        2.75943185987511       -0.78824723209284
O           -6.45445153126869       -0.49291388794093       -1.82548184875597
H           -7.48695373335360        2.09013825133495       -1.31193932492026
C           -7.39718746063865        3.10415573323924        0.57138752979305
C           -6.62511167974917        4.02705756129316       -1.62470424406805
H           -6.69206164213407        3.68300905457297        1.16411701220602
H           -8.29952032233585        3.69620817218182        0.43831918232325
H           -7.66392713188000        2.20563195756836        1.12080005192465
H           -6.21691123639385        3.79469956081215       -2.60611029067659
H           -7.58343053465355        4.52137574627699       -1.76298250661857
H           -5.95026107240675        4.72030522317209       -1.12704457193635
N           -7.43252703164117       -0.67735521992506        0.23719861087913
H           -8.37614769453815       -0.60963471014249        1.78489797930185
C           -8.45223621439476       -1.57311906676539       -0.26242010094595
H           -8.84763313455124       -1.24302075608623       -1.23145626304922
C           -7.92444037623014       -3.00493474264881       -0.40579968003509
C           -9.59564302928860       -1.57885310302377        0.76293885058808
H           -7.47924299414356       -3.33136108094912        0.53199847698422
H           -8.74784040652732       -3.66637794748646       -0.65995914750329
H           -7.17196276502617       -3.04607913834548       -1.18944156879588
O           -9.28999456927441       -0.96173771143027        1.89801180631282
O          -10.65441337581668       -2.10423624219272        0.55933221612104
