42
 energy: -62.486133510015 gnorm: 0.000479577623 xtb: 6.7.1 (edcfbbe)
N           -1.12515206833545       -1.43501277620429        0.05955063514715
H           -0.61025578564681       -0.76442135964857        0.62055664913347
H           -0.45434240899280       -1.97602330189582       -0.47281700907379
H           -2.69679859922456       -1.80529003715417        1.09974410851452
C           -2.06458699238760       -0.75397358649511       -0.83072601292472
H           -1.67511350559291        0.17655964422882       -1.26440103008790
C           -2.48757254535002       -1.69392977816779       -1.96047069905748
C           -3.30156221649810       -0.42158488866972       -0.01455524784092
H           -2.88308465908111       -2.62062975483355       -1.55003059894478
H           -3.25727737609260       -1.21719520738591       -2.55974724341555
H           -1.63717282407772       -1.92743714937320       -2.59755566849054
O           -3.48277577434131       -1.22036447449930        1.06169541978696
N           -4.03242265408875        0.52890523397362       -0.37632442263266
H           -5.23838549676907       -0.75276769759211        2.08797409411239
C           -5.29899602167486        0.89313335984000        0.22949920954829
H           -5.09003040107765        1.36446370415465        1.20289552397691
C           -5.94628134690641        1.91822725555850       -0.70720169098552
C           -6.19321636123754       -0.30375016679734        0.48512418284492
H           -5.22081964335277        2.71985872230108       -0.85377395339396
H           -6.10115876797088        1.43037733838111       -1.66918518604539
C           -7.27091875912954        2.50515644948457       -0.21289051216876
O           -6.08735313508180       -0.94429335952087        1.66521379756229
H           -7.97617767215148        1.68475684345661       -0.05070817985167
C           -7.10405692288356        3.27214224924192        1.09756966870427
C           -7.84157710019910        3.42869172839036       -1.28785517038922
H           -6.32584185667585        4.02667115831826        1.00127192053191
H           -8.03367663656473        3.77196442007298        1.36024039390833
H           -6.84364165444268        2.60588369917670        1.91633444416893
H           -7.98613229080577        2.88941156930361       -2.22060048778524
H           -8.80093066606307        3.83342101989190       -0.97422142903620
H           -7.16335980128410        4.25911081393722       -1.47241061213897
N           -7.02578181966429       -0.64329198726242       -0.39791581843816
H           -7.55517719568610       -0.60255699242478       -2.12461376102124
C           -7.89799946823650       -1.78063148732979       -0.22797145591127
H           -7.39230053025751       -2.62178499683418        0.26346637850502
C           -9.14343934676068       -1.41020627552913        0.58567879171084
C           -8.34951087383772       -2.21286380770196       -1.63048471832748
H           -9.64567206322105       -0.55856020122459        0.13054521243851
H           -9.82509895213277       -2.25584097940326        0.60534918084461
H           -8.85611244807872       -1.15214466686775        1.60203957244946
O           -8.05748164200842       -1.32427814937584       -2.57285230812260
O           -8.92694497576042       -3.24192802284254       -1.84650074026221
