42
 energy: -62.486133508908 gnorm: 0.000480814486 xtb: 6.7.1 (edcfbbe)
N           -1.13850341480149       -1.81118395552856        0.33617396120055
H           -1.15694593858143       -2.02614998582925        1.32730608563667
H           -0.16993270607779       -1.78147763284217        0.04095172435814
H           -2.70631946816197       -2.57698975217841       -0.34179717788592
C           -1.80666781967315       -0.53843648890985        0.06649367852101
H           -1.63550130914490        0.22451594152641        0.83666228729648
C           -1.35690315933568        0.00862106082061       -1.28807820146006
C           -3.30480901060658       -0.81997875652289       -0.00443479176328
H           -1.52306696354391       -0.73271755209362       -2.06686383584279
H           -1.92429442936003        0.90338946094509       -1.52476796110515
H           -0.29843204871286        0.25903875474090       -1.26346648876812
O           -3.57335633696138       -2.11194582846997       -0.34658928234639
N           -4.09143355812784        0.11940921307475        0.20853995158906
H           -5.24012468595779       -2.09272262964955       -0.53274774040127
C           -5.50530218778694        0.34967964598926        0.18141522513800
H           -5.73267999794782        0.81514231164328        1.14617736231315
C           -5.65440739767544        1.43086036655843       -0.92657836003680
C           -6.53669567608376       -0.74843048938213       -0.04179098093300
H           -4.83282751440880        2.13321827703951       -0.77079923939402
H           -5.49215771622859        0.93949252607319       -1.88969504747794
C           -6.96832855091819        2.21107541206947       -0.98193903670059
O           -6.20515848984251       -1.96698211037130       -0.47327363119226
H           -7.78570252752739        1.51168492024184       -1.17030502681359
C           -7.24448515420276        2.96055688600728        0.31791900932848
C           -6.90816795874983        3.19829356972145       -2.14766908584044
H           -6.43152737404832        3.64976404201597        0.53782549638015
H           -8.16532552016281        3.53151150323702        0.23029628185517
H           -7.35110539179568        2.27348778169135        1.15267914659942
H           -6.72504543581228        2.67996865111631       -3.08607351185155
H           -7.84944789259267        3.73498091516240       -2.23329082004633
H           -6.11168016066545        3.92387510557320       -1.99444410667960
N           -7.74560129102835       -0.41077536649108        0.13043149510241
H           -9.04402331077980        0.82379094865518        0.51719490907123
C           -8.82278559740569       -1.34536227482176       -0.11392878654470
H           -8.70217614853725       -1.86150856867779       -1.07498993201932
C           -8.94200747163939       -2.39737307152131        0.99597933368302
C          -10.12967034672383       -0.54239342972354       -0.14090313127767
H           -9.02206850061031       -1.90768140630690        1.96471655510473
H           -9.83129757219996       -2.99776889403287        0.82573130240974
H           -8.06586426926420       -3.04045673134674        0.99354456305435
O          -10.00108964790258        0.69638163970602        0.32023489586305
O          -11.17327130642782       -1.00042954361519       -0.51691238791555
