42
 energy: -62.486133511346 gnorm: 0.000479887278 xtb: 6.7.1 (edcfbbe)
N           -2.23304938155625       -1.74519123645781        1.41234053153157
H           -1.85079283022419       -1.03855684800266        2.03136329405823
H           -1.52533271991490       -2.45579144531791        1.27332142074453
H           -4.12660045274596       -1.63394123927915        1.81796077931247
C           -2.63483246474557       -1.15460998691973        0.13810339173889
H           -1.92392373092823       -0.41682418468094       -0.25875510070530
C           -2.84132480757575       -2.25924791933445       -0.89939620820709
C           -3.96998202720668       -0.46349844042393        0.36509006900077
H           -3.55368725820505       -2.99300467380781       -0.52845817535001
H           -3.22347741487433       -1.82917207002569       -1.82021281013844
H           -1.89990578063426       -2.76197897205360       -1.11032550030249
O           -4.69107253219742       -0.96476755678897        1.37696820194482
N           -4.28469561541872        0.49874905318676       -0.38082400267718
H           -6.43466817055118        0.38281008786507       -2.47826358080456
C           -5.58556889655179        1.14621435605430       -0.32474521545469
H           -5.76291246028747        1.51121363421706        0.69509367449491
C           -5.57550384187958        2.31558250579441       -1.31167934356809
C           -6.64616458814024        0.10100699964944       -0.59541819873784
H           -4.82009962416452        3.02293562832614       -0.96518434167922
H           -5.23413062430450        1.95934515261194       -2.28892409722881
C           -6.92074211319597        3.03866504898026       -1.45353630306103
O           -6.93621207996784       -0.18918545419059       -1.88333544483027
H           -7.68903366370083        2.32396445326940       -1.77042941277205
C           -7.36757455819258        3.65555655070933       -0.12997747219694
C           -6.80262062083404        4.12199597714167       -2.52505398667700
H           -6.59375295129829        4.31019122749496        0.26525131725926
H           -8.27052703126697        4.24347303866505       -0.27804865277568
H           -7.58419809524650        2.88606137802902        0.60629521504196
H           -6.50263319974225        3.69597822859255       -3.48035584600606
H           -7.75531582707648        4.62756571925816       -2.66206229682332
H           -6.06098967117449        4.86210146031020       -2.23264852216312
N           -7.12925365340543       -0.52191855817273        0.38233752351073
H           -6.93487908953736       -0.97497884030590        2.14100057691140
C           -8.04440167741648       -1.62988336219846        0.26712512046674
H           -8.96038125430847       -1.34245505221590       -0.26268425074571
C           -7.42400766953584       -2.84675387232914       -0.43119752421960
C           -8.39958160141908       -2.05021547711916        1.70272158154481
H           -6.49374819751948       -3.11852932836108        0.06471057696915
H           -8.11492118846190       -3.68333789187893       -0.37448221736125
H           -7.21776489681994       -2.61694513953006       -1.47307757272027
O           -7.57010751430133       -1.56365800115664        2.61516426223389
O           -9.31581946118616       -2.78099077651982        1.96316375297190
