42
 energy: -62.486133508412 gnorm: 0.000480393686 xtb: 6.7.1 (edcfbbe)
N           -0.91716790043291       -0.52122063699203       -0.28352546929042
H           -0.17840762130579       -1.15252025527216       -0.56909551147871
H           -0.74507909709014       -0.26918788425293        0.68618067153914
H           -1.82551192767868        1.04181189220355       -0.90067115158949
C           -2.22686312428694       -1.16131908158103       -0.40092220423945
H           -2.26642428828687       -1.63803093514240       -1.38945618302592
C           -2.52871365686600       -2.20414419389307        0.67162665189096
C           -3.27254989273409       -0.04833961949248       -0.41181931525056
H           -2.45888755482851       -1.75475137224684        1.65999687808964
H           -3.53890274912496       -2.57565457325486        0.53839804079009
H           -1.82545075220831       -3.03197303443990        0.60659120916041
O           -2.79413388906421        1.14899873543168       -0.80212040545736
N           -4.44927539772271       -0.33334207671808       -0.08817881856418
H           -5.87719374491785       -0.18025213989619       -2.33701154738278
C           -5.59634652841411        0.54258161882620       -0.05770412420981
H           -5.82282788370690        0.70097884493913        1.00225185306262
C           -5.49385603458929        1.89759719793906       -0.77670056372118
C           -6.72529846299156       -0.29035118156219       -0.63063744292879
H           -4.77085676267912        2.51833294897631       -0.24634502868333
H           -5.10307080728633        1.74834014595154       -1.78794891455783
C           -6.83409537202710        2.63900913906269       -0.86521818289644
O           -6.66683246130337       -0.57522397153260       -1.94658183351592
H           -7.55295969385104        2.01399574339639       -1.40779438866383
C           -7.40995706154440        2.93879317792435        0.51640860271539
C           -6.64063282401262        3.93762902389895       -1.64712162267139
H           -6.68453271710805        3.47806758163964        1.12201405468493
H           -8.30156817022544        3.55422048856367        0.42203622518528
H           -7.68752949587448        2.02270308644211        1.03056493351761
H           -6.24589970488331        3.73878342885536       -2.64130939254664
H           -7.58735282397046        4.46138707862309       -1.75470372859397
H           -5.94397757590169        4.59110506953629       -1.12634022502235
N           -7.62997097205313       -0.71912582778890        0.13112226128246
H           -8.51509133730381       -0.66738139207456        1.71591785022281
C           -8.71048648227157       -1.54731327691311       -0.35779656984754
H           -9.10267848020734       -1.18746716913581       -1.31707403488450
C           -8.26919498126098       -3.00639774301960       -0.51846843720685
C           -9.83092230799148       -1.49628562315559        0.69097302270667
H           -7.84578596105626       -3.37011678295215        0.41548484651437
H           -9.12935332734970       -3.61512164544914       -0.78264012603760
H           -7.51755506473944       -3.08047023538224       -1.30012368120559
O           -9.44904094432938       -0.95632670764725        1.84255202768646
O          -10.93395541599941       -1.92404366218544        0.49412480488422
