42
 energy: -62.486133510390 gnorm: 0.000480503308 xtb: 6.7.1 (edcfbbe)
N           -2.30543779443462       -1.90794185229015        1.41630180114877
H           -2.15673138492678       -1.36844265411679        2.26280874012914
H           -1.48029288862437       -2.47359897280677        1.25641913479756
H           -4.21547678254352       -2.12375201226253        1.41535661742395
C           -2.56328609937632       -1.02789852966396        0.27941349331340
H           -1.92583086873776       -0.13355177168644        0.25103570635154
C           -2.39151462564230       -1.80721185452436       -1.02526924894420
C           -4.01683760865257       -0.58003975703859        0.37769819412044
H           -3.03399268073838       -2.68549444683437       -1.02391427451856
H           -2.65842762466037       -1.17356652714253       -1.86559402809954
H           -1.35881841973430       -2.12941726645413       -1.14220315746103
O           -4.80665998898820       -1.43377970979689        1.04452290037495
N           -4.32953591844955        0.51198085903043       -0.15570576651928
H           -6.55402944063091        0.36855604371020       -2.40726899144743
C           -5.65701180711817        1.08724206115373       -0.24243255596078
H           -5.89030547580843        1.50873857903498        0.74428126000163
C           -5.58694420391580        2.22108048524440       -1.27209451561442
C           -6.73413357861904        0.05727376868748       -0.52157971833682
H           -4.79563706989450        2.89623345703401       -0.94275611743192
H           -5.25909748517169        1.81830632524609       -2.23647461188024
C           -6.89054717572086        3.01094968371912       -1.44500402074843
O           -7.05575927421793       -0.20005022981569       -1.80931957474212
H           -7.70705240010907        2.32455159703974       -1.69745702664932
C           -7.27270038489987        3.74717527554736       -0.16286155919702
C           -6.72955785028133        4.00825465537877       -2.59208942661934
H           -6.45752311240405        4.38890662373365        0.16438510753304
H           -8.14911564768260        4.36754158511934       -0.33547291044245
H           -7.50872290183378        3.04831018302638        0.63521285339742
H           -6.48365105268504        3.49975706057975       -3.52229596204489
H           -7.65021251823219        4.56637298225983       -2.74332383013822
H           -5.93347397557044        4.71484589466813       -2.36783309131612
N           -7.22890263739170       -0.56326180615827        0.45181570693518
H           -6.94458577662379       -1.13668738267578        2.16000197093313
C           -8.19448461750684       -1.62786581332748        0.33388378924679
H           -9.12587578485666       -1.26751479177062       -0.11930066897834
C           -7.68372905856243       -2.83380165609952       -0.46474946479250
C           -8.48532913061918       -2.11024938025197        1.76409757116226
H           -6.72888460157038       -3.16132645574351       -0.05830399854359
H           -8.40347833913399       -3.64401985634681       -0.38660183749216
H           -7.55268930374561       -2.56568270118030       -1.50939890344697
O           -7.57826511431581       -1.71527303980373        2.64727287444324
O           -9.42164881802264       -2.80767452364913        2.04373280977203
