42
 energy: -62.486133513300 gnorm: 0.000480499009 xtb: 6.7.1 (edcfbbe)
N           -1.52650416468165       -0.70200203362974        1.04822169446981
H           -0.61490161750074       -1.10462560252863        0.86785016980355
H           -1.89566475652187       -1.14702188345235        1.88440140759511
H           -2.41999509141292        1.01192819031729        1.16385213074902
C           -2.43324211320067       -0.94144058202746       -0.07490005610752
H           -1.89769534205857       -0.65458014677303       -0.98978644039205
C           -2.92426510838783       -2.38070308159026       -0.20651950153954
C           -3.59447589118534        0.02808118758114        0.07856419697333
H           -3.43523878813461       -2.68526975878279        0.70427467575165
H           -3.62933528164017       -2.44625979029407       -1.02763366482030
H           -2.08860333915932       -3.05338762392173       -0.38931965161341
O           -3.31825905801500        1.13244286339334        0.79558210058651
N           -4.70469579176547       -0.23516828315876       -0.44758669278164
H           -7.24848537614435        0.63051846281830       -2.35198866178757
C           -5.81714043911597        0.68982165876853       -0.32142169074715
H           -5.88732611021193        1.03664296941313        0.71848142892236
C           -5.63462293028786        1.90450546719812       -1.23936250112309
C           -7.05241471797438       -0.14244570087018       -0.61020751997540
H           -4.67405820216140        2.35803794247796       -0.98763919017239
H           -5.55438582373652        1.56602942238736       -2.27888618396528
C           -6.73614287277262        2.96541128101707       -1.09566552698810
O           -7.68451916861136       -0.02407320711883       -1.79191939508892
H           -7.71729367775275        2.47749104565578       -1.06010295936767
C           -6.56018204382239        3.76320214924388        0.19440825040413
C           -6.70783006252489        3.90846463467663       -2.29837606779061
H           -5.59791089192522        4.27061358496058        0.19744728724228
H           -7.34412014514367        4.51153495390592        0.28461855607080
H           -6.60922043650490        3.11530310303610        1.06546691059614
H           -6.88707806280589        3.37049472962646       -3.22765481956877
H           -7.47349661536037        4.67379251244970       -2.19779229125702
H           -5.73999713550453        4.40034775254049       -2.36876718149861
N           -7.40185987296967       -0.97403254537891        0.26881041937975
H           -7.21486115092686       -1.64227395210297        1.91354193234824
C           -8.51321633528781       -1.87966982218064        0.08942151601652
H           -9.41662016532951       -1.35100976345695       -0.23984022930435
C           -8.19968291859538       -2.99533554427445       -0.91366298544304
C           -8.78635707054989       -2.52385725844089        1.45804687580989
H           -7.27358311444098       -3.49291407974706       -0.63369462326727
H           -9.01080512921959       -3.71803919511612       -0.90838573337872
H           -8.09039679127978       -2.57923711417250       -1.91137653585952
O           -7.85163812017248       -2.25261913541025        2.36053881492723
O           -9.73806953198577       -3.22072362880360        1.67789688392933
