42
 energy: -62.486133514120 gnorm: 0.000480510975 xtb: 6.7.1 (edcfbbe)
N           -0.77768254948974       -0.22654026388513        0.24734090641616
H            0.14059675977226       -0.35131189848565       -0.16103085814301
H           -0.84430972446777       -0.84937886724234        1.04769058375419
H           -1.96447256755018        1.22324712163730        0.77319129281137
C           -1.82954203466011       -0.54083382774465       -0.71776309067818
H           -1.58020703163919       -0.01622882849679       -1.64986908056804
C           -2.00589219458994       -2.02915672120424       -1.01348079814093
C           -3.10898679549870        0.09382891278056       -0.19390346186712
H           -2.29738357732322       -2.56214127499989       -0.11064632245796
H           -2.77743351543344       -2.16673427117897       -1.76377196997277
H           -1.07416872591089       -2.45051176053443       -1.38587267394472
O           -2.92651472441858        1.14926181918965        0.61114254297842
N           -4.22857939650485       -0.36850717833737       -0.53639813953754
H           -5.11007370360943       -1.94613964985824       -0.71334153346423
C           -5.47178071823233        0.23216033173963       -0.08874309593696
H           -5.42700027885354        0.46856707650795        0.98236245495316
C           -5.68496565175575        1.53617269556155       -0.88115041980645
C           -6.54306225411883       -0.82288908249769       -0.31105377561230
H           -4.84041575879194        2.18444739059639       -0.63458885610219
H           -5.61905081905397        1.29019451567520       -1.94396699766626
C           -6.98196154348365        2.30782797221666       -0.63028500418462
O           -6.07814055345599       -2.04834794651852       -0.59072367365389
H           -7.81104310872908        1.73628596441164       -1.05162888553711
C           -7.23732013857697        2.53542830391068        0.85650962409315
C           -6.90742381792863        3.64802567382523       -1.36167245355879
H           -6.38874143730949        3.03996014426082        1.31467483349961
H           -8.11939377773710        3.15636068555053        0.99358550638245
H           -7.40144906432382        1.59125461621584        1.36870236121866
H           -6.71493888710908        3.49875847716797       -2.42159252186350
H           -7.84586511192584        4.18661270660487       -1.25782552390598
H           -6.11024641912523        4.26463659934324       -0.95076912947651
N           -7.76974867809372       -0.52942842560267       -0.27822219881587
H           -9.18619408446868        0.62957610488719        0.02774209583671
C           -8.77720437314718       -1.54412891487720       -0.50726888523156
H           -8.56845035178869       -2.12103888989048       -1.41679637379889
C           -8.89982423886270       -2.51589400964277        0.67361318900258
C          -10.12513528338050       -0.83015879450414       -0.66246184916203
H           -9.07498355264194       -1.96253868776512        1.59458419745017
H           -9.73413299597396       -3.18960885615311        0.49937787508234
H           -7.98426864461598       -3.09283487445593        0.77376701106398
O          -10.11308752453177        0.42638202403374       -0.23180877761611
O          -11.10571241135263       -1.36666198658217       -1.09871312046562
