42
 energy: -62.486133503817 gnorm: 0.000481459342 xtb: 6.7.1 (edcfbbe)
N           -3.04053935191625       -1.39986308313545        1.52580138560557
H           -2.25980053502917       -1.94897301928724        1.18472103805740
H           -3.72498026713685       -2.04621431836778        1.91098060921629
H           -3.25684517032855        0.20859115075946        2.48227704575784
C           -3.63689649887099       -0.61200804510750        0.44784878782534
H           -2.81891847068943       -0.00760439007972        0.01872109032023
C           -4.22852039037009       -1.45022839515816       -0.68059786718156
C           -4.51460130062514        0.47795202644304        1.11614801204500
H           -4.89773494196804       -2.20688484807159       -0.28407458989235
H           -4.77467765709694       -0.83153848615742       -1.38581697812808
H           -3.42331946658956       -1.95360017302869       -1.21621289792991
O           -3.95906379960429        0.86268585528313        2.27438380636708
N           -5.41138394833154        1.22455067012631        0.66212182256195
H           -8.44607906004113        0.54783250497321       -1.57588505371352
C           -6.55737027134049        1.16233025692843       -0.16472910375977
H           -7.31969918050329        1.79760889225800        0.32162337863763
C           -6.23846648320744        1.77775999278721       -1.55416523473947
C           -7.21475050998613       -0.20328049367871       -0.29615129194298
H           -5.25755403371490        1.41485229934380       -1.86942772536827
H           -6.96247380973110        1.44751344786438       -2.30547084539846
C           -6.22364214532689        3.31123145764524       -1.54606734097698
O           -8.26502413012023       -0.29613961283001       -1.14197585220937
H           -7.14121331367764        3.66398368984802       -1.06033722046095
C           -5.02641227975624        3.84866359440294       -0.76901463567582
C           -6.20538571904916        3.83778368296816       -2.98099620353491
H           -4.10029090523452        3.57845646008441       -1.27255690904795
H           -5.07568056664869        4.93271470321280       -0.70019398595208
H           -5.00704740124599        3.42964828485746        0.23322338249174
H           -7.08778992130171        3.51490205007635       -3.53086154439841
H           -6.18358361755425        4.92461466521358       -2.98232393850421
H           -5.32285617671481        3.47827219521229       -3.50601144600645
N           -6.89718407990862       -1.12400509431396        0.49820838643868
H           -5.97740555689913       -1.56384295514058        1.96517411171858
C           -7.55199031652335       -2.40935291636634        0.57785366273430
H           -8.55742856482452       -2.27500705391570        1.00313012252554
C           -7.68323640126522       -3.18409711428108       -0.73395490577951
C           -6.74823036769547       -3.22767275388956        1.60555014308435
H           -6.72632543358848       -3.22491619002180       -1.24978275661919
H           -8.00023826867045       -4.19794652986705       -0.50467411806489
H           -8.41318318279812       -2.71281338658775       -1.38514490133077
O           -5.89381771577463       -2.48838602557446        2.30972551488779
O           -6.87330994265870       -4.40955147875756        1.75946121259285
