42
 energy: -62.486133520996 gnorm: 0.000478815566 xtb: 6.7.1 (edcfbbe)
N           -2.30828832001103       -0.77322364618114       -0.30072908179872
H           -2.11972580464741        0.13015795469159       -0.72292283831880
H           -1.96967956123250       -1.49241994522139       -0.93019498669108
H           -2.39173430748600       -0.52128834877564        1.74098482968102
C           -3.73600665794848       -0.94453797631150       -0.03604287826051
H           -4.37372129328526       -0.73418985599611       -0.90878539516201
C           -3.97261557018694       -2.37841754263828        0.43970849174751
C           -4.07328605983895        0.01153228575297        1.11131244695151
H           -3.33509148336847       -2.60017820908421        1.29269669752162
H           -5.00733041350162       -2.50710549845201        0.73954603012467
H           -3.73883088078873       -3.08310726602632       -0.35673089675787
O           -3.15428572104201       -0.01712394895846        2.08135188297868
N           -5.04624152823807        0.79455336535548        1.26384483441576
H           -6.96048259136946        0.91277634228259       -1.99309568050819
C           -6.08149709383053        1.09677700745301        0.31575759000454
H           -6.87133235846905        1.56248539558415        0.92523639561737
C           -5.55623457574810        2.15796868300853       -0.67627516748366
C           -6.75653751139766       -0.08882396986277       -0.35759840495392
H           -4.74631619780563        2.68805503365869       -0.17104660686569
H           -5.11145064069985        1.66398947870748       -1.54732435079561
C           -6.60796797856948        3.19210549810400       -1.11447365104096
O           -7.17466153902810        0.04163735845415       -1.63568965315584
H           -7.57670665362312        2.70156914222465       -1.27662048897873
C           -6.80129109822120        4.24833312933310       -0.02850857225098
C           -6.17784206388252        3.85830515804152       -2.42146019755057
H           -5.88645802894467        4.82057920306534        0.10720849312256
H           -7.59858594250854        4.93437847148898       -0.30401549168742
H           -7.05789689407962        3.78767192483736        0.92176912437038
H           -6.08922913190515        3.13345848794844       -3.22956211555837
H           -6.90422135504043        4.60993710541601       -2.72034338313537
H           -5.21455499849969        4.34729567469727       -2.29419559233021
N           -6.98918004072779       -1.11951619036415        0.32735412460454
H           -7.01541168562164       -1.89904816256677        1.97936833165700
C           -7.75500333218718       -2.24240545641471       -0.16707143049834
H           -8.77229916166934       -1.90767326903255       -0.41642606249195
C           -7.17818428108459       -2.95354050317882       -1.39377666675771
C           -7.88419604542875       -3.24057594000420        0.99772985650158
H           -6.14315858282664       -3.23459736261672       -1.21828347655007
H           -7.75928278449237       -3.85415084373906       -1.57178737406665
H           -7.23123847244486       -2.31004755543782       -2.26729999438011
O           -7.38222128551309       -2.79876068933138        2.14425080504024
O           -8.39576059082269       -4.31860645721476        0.87524980520130
