42
 energy: -62.486133519188 gnorm: 0.000479035738 xtb: 6.7.1 (edcfbbe)
N           -1.55804546185933       -0.80962246608833        0.03964474190112
H           -0.94136031498238       -1.61199488099702        0.07535648491953
H           -1.21261729458606       -0.12812565728469        0.71033296918304
H           -2.35740709752348        0.31645609156499       -1.23092723879834
C           -2.93017809213053       -1.18840028143064        0.38154171561310
H           -3.15830850028396       -2.11744476179244       -0.15517935335308
C           -3.17374090624628       -1.39878996423456        1.87357623809102
C           -3.85896914356566       -0.12007317551644       -0.19781538009287
H           -2.91958495105891       -0.49505641156870        2.42519661241860
H           -4.22122606397750       -1.62234727532861        2.04282738587034
H           -2.56705519883648       -2.22246674943010        2.24395354774050
O           -3.28754196692962        0.62304827266174       -1.16942436590685
N           -5.02465914227480       -0.05833878662229        0.24981104137249
H           -8.31065937203731        1.28048171538142       -1.12896007975220
C           -6.12409779995114        0.78671179406223       -0.11685967046924
H           -6.33781630504002        1.37615185339932        0.78895826882828
C           -5.97668599997754        1.75097874042596       -1.31588887649798
C           -7.31833410666023       -0.14019392529598       -0.29197475903326
H           -4.91826892202627        1.87801160984642       -1.53149693884598
H           -6.42309623300714        1.29542295527679       -2.20512864283225
C           -6.58160317340890        3.14220945626030       -1.06689947097654
O           -8.43516470945763        0.36017030315706       -0.86398075746951
H           -7.54962694405269        3.05151173063017       -0.55366842740698
C           -5.65944055059243        3.97176907077063       -0.17546541472025
C           -6.81040983362490        3.85987038961331       -2.39615680975898
H           -4.70938392194880        4.14245097432088       -0.67668019769987
H           -6.10956381909855        4.93636508090905        0.04825956206489
H           -5.46134124823558        3.46129479877455        0.76428392252777
H           -7.51083759815673        3.31195112629353       -3.02398062960091
H           -7.21221944622602        4.85635424501870       -2.22748899373736
H           -5.87144237563659        3.95592471097673       -2.93637634808681
N           -7.23643714221339       -1.31662741904222        0.13705236440892
H           -6.27953230680063       -2.48069672490573        1.04654956727905
C           -8.29952632127432       -2.28573179188341        0.06872972749732
H           -9.24464240719035       -1.88466769368157        0.45734672691403
C           -8.52977400200358       -2.80302284644147       -1.35530540976237
C           -7.85657189385485       -3.46542681716580        0.95494884969674
H           -7.59059390568757       -3.15871846854142       -1.77530128344501
H           -9.24089966508898       -3.62374956315717       -1.32705753020593
H           -8.92075088658983       -2.00591399338761       -1.98296447535490
O           -6.60795076173322       -3.35424827223071        1.38596958745390
O           -8.56882547556992       -4.39750257989193        1.20957646546645
