42
 energy: -62.486133515890 gnorm: 0.000479715347 xtb: 6.7.1 (edcfbbe)
N           -1.56768983046296       -1.55953452362623       -0.84611831902782
H           -1.49890115258163       -2.16365504651068       -1.65470248344175
H           -1.17144134209131       -2.05673453262769       -0.05461465983685
H           -1.10288616883163        0.10165447604928       -0.25635187231902
C           -2.95539684483629       -1.17972757987457       -0.56547654192897
H           -3.51929894966155       -1.23789311029740       -1.49982972113627
C           -3.60528519379723       -2.08664590363827        0.48414401256224
C           -2.94895313035531        0.27733881085921       -0.03075823071483
H           -3.04759737986102       -2.02877558999511        1.41809037703471
H           -4.62816066991668       -1.78109677698754        0.68340638311771
H           -3.61171295805136       -3.12000806598246        0.13941410798953
O           -1.71574335320885        0.77193140617878        0.12030899338189
N           -3.89373915476542        0.97082903260147        0.41662614799425
H           -5.03629760097572        0.21210652089141       -2.01558796729941
C           -5.30386261104489        1.03781951925299        0.23829681058967
H           -5.72174733492671        1.14494386306948        1.24575698199781
C           -5.59223256827086        2.33714342336614       -0.54884504083045
C           -6.03830892105469       -0.10999677209311       -0.42051603813404
H           -5.09683460337430        3.14654988273355       -0.01230518168941
H           -5.11731799343168        2.26956818998917       -1.53322262937672
C           -7.07950565671228        2.66201556613332       -0.72599707601453
O           -5.67214745214738       -0.43572995492266       -1.68430195635168
H           -7.57614042773287        1.81799218666583       -1.21814530262533
C           -7.76689730702273        2.91146040061687        0.61342389628585
C           -7.22061807644863        3.89155839692423       -1.62268474596194
H           -7.25863269998935        3.70481610206858        1.15704744050356
H           -8.79946295604514        3.21103785051686        0.45193143447588
H           -7.77081902609188        2.01393133328005        1.22536503636285
H           -6.75926049853090        3.72276154333060       -2.59353778843884
H           -8.27038300579067        4.12536730875905       -1.78100051631653
H           -6.74261560217996        4.75234117663773       -1.16033107459543
N           -7.05074451250418       -0.60491372831352        0.14323801751701
H           -8.38994207405306       -0.45592076177902        1.39125298799140
C           -7.87396504169288       -1.59571010456789       -0.51301871191342
H           -8.00324579537613       -1.37361999000725       -1.58085701253356
C           -7.29223504390668       -3.00654069914763       -0.37262846492658
C           -9.25213521823182       -1.57013446962683        0.16579695458453
H           -7.09307303201050       -3.22534942366882        0.67473212891755
H           -8.00942022281969       -3.72668880314177       -0.75628189234900
H           -6.36611270070624       -3.08505645863359       -0.93649302609610
O           -9.28523482950516       -0.84809212687505        1.27964641574720
O          -10.20019232050478       -2.16336775774332       -0.26593633011875
