42
 energy: -62.486133505020 gnorm: 0.000481010226 xtb: 6.7.1 (edcfbbe)
N           -2.03683827213374       -2.25284645991131       -1.27973239290749
H           -1.06815855824002       -2.54931301773814       -1.27805177230616
H           -2.28519751878350       -2.01848964891645       -2.23746745245724
H           -3.76875022607508       -2.75588914805066       -0.67105815454362
C           -2.22788689774290       -1.08291740623454       -0.42347421018622
H           -1.75110976016503       -1.30401008011427        0.54020384716469
C           -1.64978970549131        0.21295782493980       -0.98737289436548
C           -3.73294663603757       -0.95580497458290       -0.16130530938365
H           -2.10017399059642        0.43197841514632       -1.95364388721498
H           -1.87564265177747        1.03057378562569       -0.31168644453612
H           -0.57122999288586        0.12982468644172       -1.10842643620393
O           -4.40253195128091       -2.10330703052923       -0.30708416869480
N           -4.14932643512947        0.15618970652355        0.24124496185058
H           -7.35487506870530        0.76455204425802        1.97940108169589
C           -5.47019242928810        0.66488406333529        0.45417570015313
H           -5.41594078239652        1.17234020349064        1.42917836913342
C           -5.69705643763337        1.72615062610310       -0.64966347775979
C           -6.66474146433804       -0.26354209278350        0.45868525463869
H           -4.79324968081236        2.33485916818907       -0.70736207574245
H           -5.79998140410182        1.18102059151535       -1.58950895380374
C           -6.91614725955419        2.63220458123383       -0.44859100656455
O           -7.62613678081358        0.02310380701659        1.42554328646196
H           -7.80055855546885        2.01504921109518       -0.25601430340720
C           -6.71830512719719        3.60288100229034        0.71510402701289
C           -7.17391228082120        3.41953603444985       -1.73252755988247
H           -5.86360477028656        4.24762082040502        0.52222318733124
H           -7.59897845793259        4.22957207528663        0.83659012481960
H           -6.54271095337282        3.08580801883751        1.65625937758134
H           -7.37507933731481        2.74470589527206       -2.56064237569798
H           -8.03249331665309        4.07562849587035       -1.61050103224693
H           -6.30821797860078        4.02826965517891       -1.98471341564931
N           -6.75487624566070       -1.20306917888988       -0.35336829692495
H           -9.06285402877025       -0.32290305395635        0.39494170271329
C           -7.80211778764462       -2.18002565011797       -0.47089408962113
H           -7.43360886558512       -2.90913122356581       -1.20154110752373
C           -8.13475947532556       -2.90781174538192        0.83845249629873
C           -9.09189549032207       -1.58399557599624       -1.05273726999846
H           -8.56341781697088       -2.23131913478697        1.57487658798649
H           -8.84260573545558       -3.70857213527013        0.63903952155230
H           -7.22159123714786       -3.33307537670971        1.24822963862075
O           -9.60664327449378       -0.55189783118943       -0.38353395033980
O           -9.62005661774368       -2.02381615621782       -2.03431221264870
