42
 energy: -62.486133524674 gnorm: 0.000478421192 xtb: 6.7.1 (edcfbbe)
N           -1.49493688589557       -0.92648804211183       -0.05779635389405
H           -0.88473269175849       -1.73269888941892       -0.11352268109505
H           -1.17019459906240       -0.35062015478488        0.71431778711549
H           -2.25164452125952        0.37812306088019       -1.18884468389157
C           -2.88027816400569       -1.33502997027249        0.18039473109006
H           -3.09717254441516       -2.16718914338586       -0.50076866136803
C           -3.17368056835382       -1.77028399862204        1.61308647467691
C           -3.77923351611972       -0.17777738540768       -0.25533510672582
H           -2.96356085772265       -0.95496402145037        2.30239070592622
H           -4.22051394168272       -2.03658648664943        1.70525948262360
H           -2.55968649086054       -2.62789989948206        1.88094627050456
O           -3.17907271994675        0.68513958846596       -1.10208381095744
N           -4.95496464874696       -0.15700708364098        0.17110843258012
H           -7.85242256756950        1.19876231393857       -1.73956134784273
C           -6.01469726695925        0.77497101945507       -0.10863527650370
H           -6.25515262709959        1.21816651160619        0.87036642302881
C           -5.76018669776272        1.91446637733436       -1.11021890260596
C           -7.21426451758204       -0.09720622728321       -0.46886718524271
H           -4.72003812314563        2.22265252699101       -1.01712444646241
H           -5.87793041603081        1.53945849417706       -2.13213300372073
C           -6.64582596408797        3.15028216162566       -0.86838397884480
O           -8.10694420753831        0.33931160491189       -1.37998403475383
H           -7.65690322006285        2.84415437832821       -0.56943922870739
C           -6.07364342273140        4.00326214218323        0.26278976910328
C           -6.74878621742468        3.98329784320357       -2.14575117411927
H           -5.09384193143806        4.38714155722840       -0.01301181206571
H           -6.72711831316593        4.84745815736635        0.47083821774061
H           -5.96878909475255        3.42212816503104        1.17607490953926
H           -7.20848932518042        3.41747454544445       -2.95463035462861
H           -7.34882351852891        4.87363991318406       -1.97242124064848
H           -5.75862356646586        4.29605600535570       -2.46969818605960
N           -7.32124885166713       -1.20380041224788        0.11543610831706
H           -6.65055543121673       -2.29521576949222        1.31348006811334
C           -8.38361399740016       -2.14985376063701       -0.11056500177269
H           -9.37057800755904       -1.69152981472242        0.03266790590091
C           -8.33139443240161       -2.78545307369442       -1.50372812593598
C           -8.19578601788043       -3.25904434484365        0.94225421207594
H           -7.33678003742121       -3.18652841958166       -1.68841030404903
H           -9.05629533344490       -3.59306201876921       -1.55406441302102
H           -8.56204001597642       -2.04321279221021       -2.26323686171470
O           -7.07627750677704       -3.13138235758321        1.63971273855685
O           -8.97946850871479       -4.15513816401070        1.09602723496623
