42
 energy: -62.486132320914 gnorm: 0.000617030795 xtb: 6.7.1 (edcfbbe)
N           -0.94309859933419       -1.25114017491651       -0.14678546750055
H           -0.46991142666051       -2.03873373320674       -0.57423736981535
H           -0.87479131538913       -1.36311179641818        0.86108356592932
H           -1.03943618536220        0.66252039615698       -0.18585357888047
C           -2.34815782583868       -1.20146629822297       -0.54345822300193
H           -2.37994791497852       -1.32454340124657       -1.63459143331487
C           -3.22247532364032       -2.26915675071449        0.11459627388523
C           -2.87032595939855        0.21888461669402       -0.23067263659114
H           -3.20929161651525       -2.14804370308177        1.19641241057131
H           -4.25021639657732       -2.18706623617715       -0.22358696560430
H           -2.85561532416910       -3.26382072378869       -0.13289708218658
O           -1.88915651066888        1.13998784538927       -0.10366362249498
N           -4.05949704916019        0.50710865935011       -0.11410085096993
H           -4.90119276796704       -0.39061484152374       -1.94382868033280
C           -5.41004785692019        0.83182192320291       -0.00297909192071
H           -5.65591141543805        0.87890039789475        1.06234592743848
C           -5.71858955137037        2.19848025468945       -0.65809366220172
C           -6.26859790629639       -0.24707195878611       -0.64747017863076
H           -5.03488063834856        2.93004552005781       -0.22427941048866
H           -5.48909723871859        2.12538787123178       -1.72495917502637
C           -7.16574227551356        2.66995426500896       -0.48654647708486
O           -5.77164019016703       -0.78553899871425       -1.77838637051040
H           -7.83731442238407        1.88193374910790       -0.84250705444127
C           -7.49598485579060        2.96546284845292        0.97404427928383
C           -7.39537759341228        3.91918480634323       -1.33611514268247
H           -6.81322702594216        3.71297705781803        1.37320428120248
H           -8.51010069776062        3.34852536193916        1.05648742520840
H           -7.42604735622231        2.06875883646881        1.58368003102730
H           -7.19698543987669        3.71601268837274       -2.38605853493145
H           -8.42482666295019        4.25581081587176       -1.24345323716625
H           -6.73988568043868        4.72460416318738       -1.01233687313860
N           -7.36299682134591       -0.58281118925304       -0.12524937508794
H           -8.79151955077030       -0.10091951153169        0.90434202857875
C           -8.21553146824440       -1.58874750698860       -0.72096707848140
H           -8.24778366231360       -1.50271322506780       -1.81478981820506
C           -7.75561593393186       -3.00246852364845       -0.35046413720703
C           -9.63423627557431       -1.37304776843036       -0.17247286343707
H           -7.65212372425573       -3.08781085754917        0.72929376588898
H           -8.49366136029174       -3.72032097769016       -0.69627068819639
H           -6.79745409978399       -3.21682287469977       -0.81753433750759
O           -9.70242010384243       -0.45579217728584        0.78490319685476
O          -10.58550165167210       -1.98751260844306       -0.56698268366226
