42
 energy: -62.486133514170 gnorm: 0.000479923389 xtb: 6.7.1 (edcfbbe)
N           -0.91634132359090       -0.44211238614642        0.15541257321896
H           -0.05692149356794       -0.67538660333221       -0.32637824266782
H           -0.93552362654007       -0.97549515949600        1.02050138955395
H           -1.93399519181563        1.09785416329114        0.68923871750066
C           -2.08305953914751       -0.77464071544520       -0.66168094955926
H           -1.88136678662264       -0.42552981121712       -1.68186560396869
C           -2.43375602279013       -2.26056074735112       -0.70069402685824
C           -3.25120996581903        0.05483218554148       -0.14746498942062
H           -2.58038398851317       -2.63881288170906        0.30974404926978
H           -3.35630964206621       -2.39358308208758       -1.25549282178680
H           -1.63785153759451       -2.82923574412554       -1.17698119441140
O           -2.90842652557153        1.11933789400623        0.60183908423562
N           -4.42615915300411       -0.27033279952281       -0.45397216125510
H           -5.81764875668178       -1.09833098078191        1.69407775243084
C           -5.55426459449166        0.53523927000496       -0.02150795986575
H           -5.35265871840630        0.99095756478626        0.96116925247066
C           -5.82039132242984        1.63996530302956       -1.04860681931311
C           -6.70935676727970       -0.42796248427232        0.10712607766901
H           -4.90602607857161        2.23093142913977       -1.13906555706446
H           -6.01785606010560        1.15296530999056       -2.00321019120111
C           -6.99180526418469        2.56382055138079       -0.70357506695698
O           -6.65940657474311       -1.22231974681013        1.23986907775811
H           -7.89722008610501        1.95570470185890       -0.62702806180827
C           -6.77445088548006        3.30327985216168        0.61506814383968
C           -7.17937402795551        3.56931119626376       -1.83837885848591
H           -5.81207481938391        3.81182395743519        0.61382563938189
H           -7.55497849598304        4.04676336523473        0.75894186852769
H           -6.80689824947462        2.62319800689970        1.46262109558204
H           -7.34742671994674        3.05350550583772       -2.78010072595279
H           -8.03548064767541        4.20997333377777       -1.64153958043408
H           -6.29649916442625        4.19755283963495       -1.94057149680011
N           -7.58477018485205       -0.50770899890607       -0.77792543618031
H           -8.44652302994876       -1.20302760621890        1.56124557480065
C           -8.69738781991084       -1.42007526559261       -0.83027536426591
H           -9.14193042444152       -1.27613458611183       -1.82197864669093
C           -8.31485209548840       -2.89673185413305       -0.66104698238929
C           -9.79079237046319       -1.07495584093320        0.19235058826893
H           -7.93109922932773       -3.09797887579559        0.33665970750162
H           -9.18862350089266       -3.51940674003293       -0.83655361070025
H           -7.54495941080976       -3.15177807129359       -1.38560100565838
O           -9.39947631421275       -1.01919267968827        1.46531323822440
O          -10.93065485602348       -0.88774856902985       -0.12457340085324
