42
 energy: -62.486133510028 gnorm: 0.000479700048 xtb: 6.7.1 (edcfbbe)
N           -2.18007202939586       -1.59830587769480       -1.55774217423985
H           -2.24326719928028       -1.12330745956924       -2.45233926377468
H           -2.15418523067322       -2.59583359719482       -1.73562537262022
H           -1.27429275897665       -0.33201191647837       -0.52287405294781
C           -3.32639230655459       -1.24929163331329       -0.71312874713056
H           -4.26919171957946       -1.21261999750684       -1.27205518914371
C           -3.43044533225483       -2.25507761214037        0.43397792499846
C           -3.03476966462632        0.13724945771595       -0.11962608121495
H           -2.51373221025801       -2.24624035137368        1.02032440801820
H           -4.26352344809903       -2.00580641191730        1.08467888667959
H           -3.58409524671174       -3.26143655252950        0.04706692097431
O           -1.72529607774983        0.40685559839273       -0.05888061925099
N           -3.81169289907500        1.02271169446374        0.31484781754310
H           -6.32457101514065       -0.25225738053111        2.14979554854037
C           -5.22802383218411        1.09877981084925        0.45988924756506
H           -5.37686801409434        1.41659891626173        1.50433877834466
C           -5.71638643393713        2.23349466358980       -0.46576886680597
C           -6.10114269871944       -0.11780824423005        0.21610453377727
H           -5.02659826032187        3.07001794738155       -0.35282832203497
H           -5.64480790394911        1.85969911010634       -1.48736563512781
C           -7.15127449712930        2.69500090532653       -0.19011864488627
O           -6.64303416549069       -0.69593999301230        1.35307094161870
H           -7.80053598163730        1.81599689904112       -0.10873433255491
C           -7.24984804890236        3.50283301769872        1.10223625064043
C           -7.64597035376148        3.53489554722197       -1.36583530590780
H           -6.62283378590261        4.38933572266746        1.03953157788370
H           -8.27678363477052        3.81931012919867        1.26939252118181
H           -6.93380118404934        2.92300009270813        1.96637715128172
H           -7.64639370302598        2.94653832974769       -2.27980833500362
H           -8.65962820843995        3.88367473594622       -1.18427775225027
H           -7.00306559537094        4.40038774928698       -1.51004356716282
N           -6.33965577597144       -0.51338102878371       -0.94646025317137
H           -8.34358312132116       -0.87137758642633        0.66049846087835
C           -7.21424711036561       -1.58541333918449       -1.34805175057740
H           -7.03145673469596       -1.72375968263057       -2.42028662695705
C           -7.01440311863867       -2.92469053400993       -0.62684501444012
C           -8.68784466068697       -1.16607115333263       -1.20969996295378
H           -7.19140274982242       -2.83687639816509        0.44256044533085
H           -7.70332841190872       -3.65802685653424       -1.03923969094434
H           -5.99694473257159       -3.27546147614110       -0.78057027676444
O           -9.07363006991904       -0.81461624860716        0.01669817848000
O           -9.44717128409731       -1.17279373986563       -2.13424816723711
