42
 energy: -62.486133514545 gnorm: 0.000479108234 xtb: 6.7.1 (edcfbbe)
N           -1.42368917790732       -0.62494147369798        0.72372317545641
H           -0.61101572155157       -1.19602933426610        0.52477974918885
H           -1.61502576393245       -0.70575958225567        1.71897636570786
H           -2.13376241757453        1.13050816842053        0.38156004885871
C           -2.58412264004953       -1.08836001970588       -0.03731489302790
H           -2.26022406474937       -1.20774655154725       -1.07977268997374
C           -3.19361102872005       -2.39810466150386        0.45539087393056
C           -3.60810081518321        0.03990911434958       -0.02385273314857
H           -3.48319510290508       -2.30703314586617        1.49993388936053
H           -4.08330098057766       -2.61915083831297       -0.12348722368249
H           -2.48008627697293       -3.21323284156924        0.35322059152984
O           -3.08356830205908        1.26440144750660        0.18628610731020
N           -4.81742623535524       -0.23989243359150       -0.19845582072848
H           -7.48994430085637        0.88838330798497       -2.15265335548903
C           -5.89637159199193        0.72431162773138       -0.22848244309294
H           -6.03037835382351        1.11655403435609        0.78890102581549
C           -5.66884870883356        1.90153597527694       -1.18720826597839
C           -7.12847122183073       -0.11049016276191       -0.55267926276088
H           -4.67443233341921        2.30235588916769       -0.99026360423336
H           -5.65496857195479        1.53148781158599       -2.21892556273704
C           -6.69187995900416        3.03775023624083       -1.02040945056215
O           -7.85377039014941        0.14272688297175       -1.65865304110168
H           -7.69166467731060        2.62066844041473       -0.84849961632600
C           -6.33803156552397        3.90703992885055        0.18449489784458
C           -6.73433540203568        3.89529984836600       -2.28512287992536
H           -5.36592369363094        4.37364826569756        0.04133839205835
H           -7.08028582503644        4.69068798272649        0.31765491903812
H           -6.30253371897563        3.31572272458749        1.09595206545816
H           -7.04345057922904        3.31251738879274       -3.15155073296762
H           -7.43653125003592        4.71654853039619       -2.16341687831043
H           -5.75098912823887        4.31391414230771       -2.48847643706848
N           -7.39863491717833       -1.04758050795844        0.24158140355486
H           -6.92646606580812       -1.98446549442123        1.67644171306440
C           -8.48734730413142       -1.97493118268915        0.05338039221187
H           -9.44860177500147       -1.45421369168049       -0.04083998684018
C           -8.29360391980212       -2.88161590018525       -1.16743662103141
C           -8.52409951801686       -2.86211778632119        1.30999867669145
H           -7.31744072019657       -3.36001047078494       -1.11897607899211
H           -9.06626581157200       -3.64533506151604       -1.17127623068717
H           -8.35694951779501       -2.29701177941160       -2.08103964172237
O           -7.46693373560772       -2.70121175667527        2.09455909101031
O           -9.40990818331893       -3.63876291751858        1.53955525115518
