42
 energy: -62.486133504227 gnorm: 0.000481114475 xtb: 6.7.1 (edcfbbe)
N           -0.87867756622668       -0.19764331256635       -1.28919071206863
H           -0.16502095243234       -0.77726676234493       -1.71256750076813
H           -0.46438315797516        0.26194410859202       -0.48317979317019
H           -2.16594109146344        1.08937198448268       -1.80561051409360
C           -2.02938663184489       -0.99559236933179       -0.87164210731104
H           -2.26942881289596       -1.67674252164558       -1.69895714287990
C           -1.80115391718685       -1.80767794147150        0.40184430326768
C           -3.21774192940074       -0.03815812969994       -0.74298291062541
H           -1.57824480980665       -1.14298521644510        1.23372684782712
H           -2.68947459841843       -2.37794292577610        0.65029209916442
H           -0.96795235667952       -2.49439697073642        0.26457910171141
O           -3.06847824159958        1.10474657315888       -1.42117328908196
N           -4.18911137408747       -0.39986402320177       -0.03337362631889
H           -5.06035142035341       -1.99694481128446       -0.21147717110965
C           -5.47431824280505        0.23917132285611        0.16236888163309
H           -5.57169472660921        0.35741567340351        1.25092650945669
C           -5.63783696389039        1.60858266729831       -0.51115906986108
C           -6.50422900040878       -0.80959864947606       -0.24841662179916
H           -4.82439220096421        2.23627597577902       -0.13964971526204
H           -5.49204809291880        1.48321072004163       -1.58517564823303
C           -6.96024520319136        2.34952308668016       -0.28742362418580
O           -6.02459506765522       -2.05705103284139       -0.37697388793704
H           -7.73186013267430        1.86160616381594       -0.88526303314519
C           -7.39542451644385        2.35380177104475        1.17484803211344
C           -6.81090436741893        3.78435502908670       -0.79355549344924
H           -6.61255859542390        2.76993887955616        1.80633101368710
H           -8.28796000447138        2.96368749613159        1.29497791948793
H           -7.62394953609712        1.34705813156794        1.51420950252794
H           -6.48401098094609        3.79329272508164       -1.83055697521026
H           -7.76128953547393        4.30856317415591       -0.72986911580823
H           -6.07885868281286        4.32707143967683       -0.19862510925451
N           -7.71600044733004       -0.51199002787066       -0.42726392576066
H           -9.19683623428189        0.63503109950440       -0.35782957499777
C           -8.67342438308563       -1.53477810020856       -0.79765151474486
H           -8.30597830584967       -2.15265791659998       -1.62580132134659
C           -9.02187159611104       -2.44985131055237        0.38405847312477
C           -9.96517777415896       -0.83016948703495       -1.22543411334992
H           -9.37292140860238       -1.85510303419017        1.22553691987360
H           -9.80563558087485       -3.14038348065957        0.08532088311975
H           -8.14264555524549       -3.01184064344653        0.68791981013659
O          -10.05232619965499        0.42274951229001       -0.79277405853187
O          -10.83185106763791       -1.37078469374913       -1.85442770183794
