42
 energy: -62.486133516961 gnorm: 0.000479398712 xtb: 6.7.1 (edcfbbe)
N           -1.63558062423908       -0.73347730705279       -1.90532439630959
H           -0.99799318659232       -1.43468108497039       -2.26231060819446
H           -1.07828936922272       -0.01133957144734       -1.45707563643887
H           -3.18095275426377        0.27596245294081       -2.46535152161544
C           -2.56374384006291       -1.31556470593026       -0.93676607170414
H           -2.97569550325501       -2.22669304946821       -1.38865095947468
C           -1.94211368316486       -1.66154987598678        0.41400880025703
C           -3.73881326949605       -0.35325616909139       -0.79039755661175
H           -1.48973124167468       -0.77623968358078        0.85619706594219
H           -2.71941218074475       -2.01759759705280        1.08042504459875
H           -1.17980689464638       -2.42976525609258        0.29966082491607
O           -3.90988017757119        0.46368443964607       -1.83992835226880
N           -4.43793670529640       -0.42657653955215        0.24984192420269
H           -7.79158176716650        0.25604504699252        1.61816764747190
C           -5.62296271800602        0.34244567652169        0.52544277223264
H           -5.65072652794418        0.41594187068649        1.62346030551889
C           -5.67371062897103        1.75809339755517       -0.08548833527967
C           -6.82653421292388       -0.45665959105759        0.07994685198501
H           -4.71289315143758        2.23645132452791        0.11792454442425
H           -5.77124576378625        1.65189286991911       -1.16575747140130
C           -6.79932814737691        2.65979513368479        0.43466929489513
O           -7.96767068507452       -0.30027276236083        0.84966527624503
H           -7.76226394153859        2.15176093086841        0.31080810250814
C           -6.61128485277464        3.03245660832548        1.90544259247695
C           -6.84521110013310        3.93282840989129       -0.41029977955044
H           -5.67038046693427        3.56209696932372        2.03835469179166
H           -7.41804683830899        3.68400650458671        2.23457369007294
H           -6.59894800481159        2.16034627178678        2.55678133593392
H           -7.02998353789033        3.69186481024815       -1.45403447737043
H           -7.63877652605284        4.59157029174202       -0.06477619301596
H           -5.90027377982787        4.46752903856563       -0.34263300457058
N           -6.74985659879665       -1.18917532302500       -0.92772941882359
H           -9.12481413113856       -0.25450345847756       -0.54891801911445
C           -7.78200812014701       -2.02053319097622       -1.48826661527694
H           -7.28442469029706       -2.61701795410224       -2.26171280069824
C           -8.45508261096605       -2.96432449099965       -0.48201766810365
C           -8.87097952105498       -1.20290849988195       -2.19989181945794
H           -9.01993625983244       -2.41359956023690        0.26697630217653
H           -9.12868211567731       -3.63470510592547       -1.01008624734066
H           -7.69241720770462       -3.55259199753947        0.02327095240648
O           -9.47868468385377       -0.27733454079970       -1.45782979347768
O           -9.17753324430964       -1.39643085660682       -3.34143615788858
