42
 energy: -62.486133499427 gnorm: 0.000488136343 xtb: 6.7.1 (edcfbbe)
N           -0.93619310069335       -0.52896254559511       -0.75460709073211
H           -0.21656315744622       -1.20120052803900       -0.99048432087303
H           -0.60346054722099        0.00771408836618        0.04201741879619
H           -2.04247109077486        0.75721195089501       -1.59196015819667
C           -2.18895922555401       -1.20037857389868       -0.40919133338339
H           -2.36420358330844       -1.97486456308160       -1.16710490346372
C           -2.20901796340070       -1.83952117374014        0.97631292701655
C           -3.30933443420848       -0.17313925760227       -0.56610258005406
H           -2.00068710882834       -1.08952447956292        1.73675261443890
H           -3.19315776478796       -2.25355491448767        1.16659579162910
H           -1.46339156685465       -2.62926346036268        1.04279510252149
O           -2.99200437706022        0.86163491621420       -1.37133403326997
N           -4.40183272602627       -0.39363071354922        0.00717302256870
H           -5.60837136953594       -0.45037147790246       -2.22655136093014
C           -5.59124914293341        0.42280767507784        0.00301274531360
H           -5.85937679826778        0.53372060896437        1.05890840076297
C           -5.52726981708621        1.80676462437303       -0.66284660098192
C           -6.67178591325499       -0.41953109441015       -0.64202405792349
H           -4.74456569109508        2.38834967143424       -0.17255037075173
H           -5.24067582360633        1.69853026688742       -1.71195162126141
C           -6.85369022326075        2.57370548728023       -0.59317806061339
O           -6.45822515454551       -0.79253953336907       -1.91939593637827
H           -7.64191022474372        1.95530443358271       -1.03725524407447
C           -7.25200634030113        2.90212001224225        0.84329108155419
C           -6.73243074652838        3.86125065615667       -1.40758021989830
H           -6.45728407447050        3.45443762743830        1.34088435025619
H           -8.15013076340993        3.51501063624394        0.84890927396025
H           -7.46052619381044        1.99920882080748        1.41015128961887
H           -6.47880030670688        3.64414597928863       -2.44296464302239
H           -7.67128297789794        4.40932555731081       -1.39437242404802
H           -5.95616637412770        4.49989968779889       -0.99110073626441
N           -7.69808045421446       -0.73490564222918        0.01323570660415
H           -8.82357025765152       -0.42446776367021        1.40721124193979
C           -8.75844486570674       -1.52657502305790       -0.57068937539225
H           -8.96277118227237       -1.23885750862760       -1.60977663318373
C           -8.42636857543780       -3.02213201374982       -0.52760912821560
C          -10.02135209685949       -1.28628467663239        0.26915362373551
H           -8.18231946476953       -3.31834865156309        0.49045458260447
H           -9.28649496278100       -3.59085182704897       -0.86955285696119
H           -7.57450451378488       -3.22976833811856       -1.17021887247982
O           -9.78554616583415       -0.63765553289849        1.40349304206522
O          -11.10971413552091       -1.66683918389274       -0.06101461475849
