42
 energy: -62.486133498284 gnorm: 0.000480668259 xtb: 6.7.1 (edcfbbe)
N           -1.36693506376308       -1.43563205102810        0.36499727527570
H           -0.80467319891899       -0.63713443549803        0.64155084448344
H           -0.73714383049184       -2.16413813642484        0.04959647702722
H           -2.94538300522178       -1.27993229516582        1.50095742612904
C           -2.30060620381054       -1.06582622009562       -0.69935888282960
H           -1.87394778186762       -0.39128112545311       -1.45364415508980
C           -2.82590978392197       -2.32316256880915       -1.39329341712855
C           -3.47784572445323       -0.36981992416877       -0.04811338685450
H           -3.23303248167248       -3.01290037106182       -0.65712276597726
H           -3.61192209116276       -2.04638332648350       -2.08891874358450
H           -2.02497181503897       -2.82079423978815       -1.93597141396801
O           -3.69516251456471       -0.70686973664756        1.24080770084144
N           -4.19084017238046        0.41754537434665       -0.71810485908723
H           -6.58319832239803        0.54943603052782        1.96693983087049
C           -5.35532005769921        1.01390198005187       -0.09856691130749
H           -5.08033089794639        1.45376460455478        0.87289571022704
C           -5.88807307303573        2.09019603858154       -1.05419268527503
C           -6.41476766538564       -0.04186511940469        0.11720712833824
H           -5.08799015062984        2.81036661175248       -1.23127547366070
H           -6.09941427119551        1.58164261401615       -1.99476149430251
C           -7.14517182131989        2.81499523087750       -0.56424001622134
O           -7.02997612211628       -0.04837089875477        1.35573037764442
H           -7.89499789903846        2.07091009245723       -0.27243039182779
C           -6.85258138986362        3.71972018074023        0.63210475682465
C           -7.72883523277654        3.64453347065325       -1.70616595305931
H           -6.11140951861611        4.46953044150055        0.36308040797653
H           -7.75878097478380        4.23226665589275        0.94706746956832
H           -6.47390598766366        3.15806363491309        1.48336150602773
H           -7.98805852505291        3.00550656312360       -2.54622140341806
H           -8.62728421679844        4.16361639657811       -1.38058871557767
H           -7.00658922712738        4.38431497744410       -2.04474509852109
N           -6.68527466815800       -0.83464652248717       -0.80910886896491
H           -8.70146099375106       -0.37956071696637        0.74404924279379
C           -7.63720712305383       -1.91365339503333       -0.78486989352529
H           -7.46998964679947       -2.46662450240413       -1.71662810281324
C           -7.48069041022197       -2.87300033300882        0.40331014116331
C           -9.09019259582515       -1.41611071993977       -0.82773070692352
H           -7.70359665131823       -2.38032223897396        1.34716211277019
H           -8.15336090804442       -3.71780224899970        0.27767518380241
H           -6.45623791927191       -3.23711824341878        0.43787886564890
O           -9.44207367817367       -0.56587528011992        0.13690974595610
O           -9.87104764089098       -1.78351189875125       -1.65829364631800
