42
 energy: -62.486133528434 gnorm: 0.000477615410 xtb: 6.7.1 (edcfbbe)
N           -2.86093383570281       -2.46997478857323        1.15883076924847
H           -3.21047385243960       -2.40889406433984        2.10985777257574
H           -1.93921489967401       -2.88896232040981        1.18912712452259
H           -4.51127438137786       -2.63267062956698        0.21551756138159
C           -2.81605819098201       -1.14991210483415        0.53573461093076
H           -2.40653934745583       -0.36220673296110        1.18278595124372
C           -1.99532175509167       -1.21739406897830       -0.75249339376244
C           -4.25343364620583       -0.78126262827286        0.18396953354832
H           -2.39743200865617       -1.98369864982606       -1.41161074768368
H           -2.03351024689899       -0.25762260621576       -1.25844897565509
H           -0.95798944877171       -1.45790637800784       -0.52950951139228
O           -5.03836029302405       -1.84556730014956       -0.04275031021615
N           -4.53720083447531        0.43641946183636        0.08883250743684
H           -7.46363492490025        0.77252937462458       -2.03046452335282
C           -5.81394797450548        1.05339424704008       -0.17819406034749
H           -5.99231924887782        1.68061512266230        0.70719049482294
C           -5.62560891092355        1.98046878752014       -1.39021307142227
C           -7.01320326382722        0.12058222374888       -0.27885272474459
H           -4.62085276673773        2.39852417180367       -1.30711040119055
H           -5.63451258106426        1.38578056619181       -2.31033118556306
C           -6.64047649928194        3.13264412836881       -1.46891980485697
O           -7.79709713887091        0.14723720657438       -1.37484132798229
H           -7.63833899996294        2.77093297060842       -1.19265646589800
C           -6.26455865680456        4.24974711187023       -0.49783393364800
C           -6.70075813923726        3.68255745951846       -2.89393716893337
H           -5.30079290785842        4.67590080075055       -0.76739671270366
H           -7.00982689498133        5.04130357050115       -0.52425201358347
H           -6.20103093838093        3.87727839951830        0.52130948414145
H           -7.03194560393948        2.92315367125762       -3.60043448962068
H           -7.39326443038730        4.51903218458954       -2.94876305736224
H           -5.71821749094843        4.03182293642441       -3.20385584708189
N           -7.21923091188495       -0.64207744405594        0.70035739264627
H           -6.45616095891508       -1.38209394249365        2.08834473549042
C           -8.26458750871203       -1.63009554693118        0.79121373542822
H           -9.23871387767548       -1.14083691566860        0.91995498829499
C           -8.34297034774310       -2.59653783546212       -0.39474163955280
C           -7.96975318790748       -2.44592687372536        2.06462761779136
H           -7.34958927643583       -2.98271268252614       -0.61213436775967
H           -9.00137934253775       -3.42063550197909       -0.13367323704785
H           -8.72635207134137       -2.09033539838282       -1.27579862747293
O           -6.81964328100687       -2.12081309449283        2.64164312524343
O           -8.69968039398004       -3.30381255910535        2.47885536667677
