42
 energy: -62.486133513136 gnorm: 0.000479654029 xtb: 6.7.1 (edcfbbe)
N           -0.88221570232555       -0.49263920668635       -0.23636607630237
H           -0.08830541696454       -0.77223593061452       -0.79993353431241
H           -0.81498679270774       -0.98561551449617        0.65016025602855
H           -1.83338642267434        1.10711349857162        0.30612835884639
C           -2.13951779786393       -0.83978849187485       -0.90018621552146
H           -2.06246550475289       -0.49851232266622       -1.94054308869718
C           -2.48824074102469       -2.32536925169545       -0.88419391227261
C           -3.23808742912888       -0.00682407411965       -0.25772782485740
H           -2.51300284432421       -2.69293421708992        0.13991283741328
H           -3.47228555612135       -2.46039319829395       -1.31962512427519
H           -1.75496048262010       -2.89760132647017       -1.44883248548593
O           -2.81029873495690        1.11927181098512        0.35058852496061
N           -4.42982337222972       -0.39220472442156       -0.33342840049491
H           -7.08043765015733       -0.14437072843744        2.00681421570455
C           -5.51629507414674        0.38651164771963        0.20750830515950
H           -5.31349355403176        0.63972383758814        1.26082658901009
C           -5.72357018332128        1.68355984048371       -0.59810079757403
C           -6.76976126674976       -0.44938874076197        0.10299616043825
H           -4.80408929424537        2.26823732587674       -0.54633672699476
H           -5.88806958835973        1.37945941414865       -1.63285338454320
C           -6.90239288608982        2.53867223313011       -0.12248645379071
O           -7.52061669469196       -0.57353230611171        1.26344522816928
H           -7.79631542593841        1.90867642709998       -0.05261435770615
C           -6.63231540482734        3.17364258482239        1.24072885705890
C           -7.18089182043968        3.63083241573593       -1.15332066256413
H           -5.74369644755773        3.79962774646456        1.19342986653544
H           -7.47407220517446        3.79392189650595        1.54027385137225
H           -6.47770954470519        2.42505076640450        2.01484954354876
H           -7.42599177925559        3.19083553382014       -2.11651701267111
H           -8.01789193293048        4.24857021523003       -0.83662878233031
H           -6.30812557267666        4.26883721245665       -1.27566331452131
N           -7.07876180542216       -0.95682003701585       -0.99359056222547
H           -9.14130590996476       -0.41399653017175        0.46612073235669
C           -8.21775860846822       -1.78544903796311       -1.28704842088488
H           -8.04946109380192       -2.16033972140282       -2.30325299042186
C           -8.39977053632422       -2.97678807579044       -0.33649098116295
C           -9.52511003634082       -0.97950652600861       -1.33001832849741
H           -8.63352868675365       -2.64979628864103        0.67431566141210
H           -9.20582062660721       -3.61023429680107       -0.69832931751588
H           -7.47879642268619       -3.55461372986134       -0.30853483561032
O           -9.82195829265134       -0.29696538004286       -0.22349226815760
O          -10.25060610068850       -0.97865086469952       -2.28304807692082
