42
 energy: -62.486133512218 gnorm: 0.000480448455 xtb: 6.7.1 (edcfbbe)
N           -1.85795864819701       -2.15434608208681        0.33888518940049
H           -1.60255034671120       -1.98030507275633        1.30531869769618
H           -1.06528439118983       -2.58798666556544       -0.11952494405893
H           -3.77027245154368       -2.43392815134140        0.40338301429793
C           -2.22879327717982       -0.91016091888817       -0.33398214151409
H           -1.60309472314578       -0.05049105881686       -0.05806401926015
C           -2.17332014250416       -1.10312007113925       -1.84953844796482
C           -3.66886482902199       -0.59873919594747        0.04501577690913
H           -2.79838165694417       -1.94404506075464       -2.14223037885047
H           -2.53632851252631       -0.20616944474558       -2.34172847082939
H           -1.15156898790142       -1.29542504235207       -2.17081910317859
O           -4.39043728227676       -1.67523781169818        0.40599524063791
N           -4.05712269025465        0.59215151195303       -0.00881587872725
H           -5.97635995790401        0.08051178597454        2.35336010049394
C           -5.41211155777304        1.04923668243174        0.19386002099344
H           -5.37059754175563        1.72033891794712        1.06482604361889
C           -5.80045181302360        1.86625813786035       -1.04679404422955
C           -6.42654122892615       -0.04017874230309        0.46207871024615
H           -4.96961553115720        2.53589674258168       -1.27301793262847
H           -5.91463514914593        1.16065122650331       -1.86913741715479
C           -7.09416999753480        2.67061203562793       -0.89043824780689
O           -6.63812817229526       -0.34465487930663        1.79554715690341
H           -7.88383213413721        1.99739396415307       -0.54153748034039
C           -6.94027643812003        3.81607907536956        0.10816430900328
C           -7.50733013403601        3.22447744841210       -2.25266302651270
H           -6.12390821732407        4.47094234799034       -0.18981295137755
H           -7.85449083119604        4.40376679468595        0.14705818431508
H           -6.73916336813325        3.45011018519247        1.11210803541237
H           -7.66456628461696        2.41461946721574       -2.95998817996332
H           -8.43203708036843        3.79043107665949       -2.16974183555959
H           -6.73457149691149        3.88261216869527       -2.64476557948365
N           -7.01515094997382       -0.59040865436959       -0.49296222081260
H           -8.43824179227683       -0.53313339658216        1.65666936343229
C           -7.98466489300069       -1.65227324311680       -0.42759904764634
H           -8.13603161388949       -1.96893848625162       -1.46627550721838
C           -7.55639055604056       -2.86464403329376        0.41003403324396
C           -9.34618033762800       -1.15906007197553        0.08299206898766
H           -7.47154231342419       -2.61147081304259        1.46427793741608
H           -8.28684410245023       -3.66141949948306        0.29316716891389
H           -6.58673452332634       -3.21175902073888        0.06260257369296
O           -9.33682535136396       -0.56904187447062        1.27875401259033
O          -10.36081992786332       -1.31117786177017       -0.53572564742265
