42
 energy: -62.486133502539 gnorm: 0.000481138747 xtb: 6.7.1 (edcfbbe)
N           -1.38200465651189       -0.76749546761513        0.24325671770162
H           -0.69693989363665       -1.50905202818239        0.15931569627637
H           -1.30502625071780       -0.38816618013855        1.18332238824333
H           -2.03375901225539        0.75295199350547       -0.73368156798333
C           -2.73478771779428       -1.28441665784039        0.03305647755530
H           -2.71359972171832       -1.86830951539462       -0.89681963941609
C           -3.27074009637936       -2.15796317059327        1.16329675144693
C           -3.63814061099418       -0.08252569690485       -0.23064441346382
H           -3.29701583697966       -1.59388713417942        2.09275942013559
H           -4.28126122326603       -2.47383361664141        0.92981983321784
H           -2.63957643722758       -3.03433299955311        1.29664783752661
O           -2.98500552105070        0.98390209837875       -0.74242026564442
N           -4.85690966077312       -0.19255929577053        0.02720114574888
H           -7.43721723301798        0.95103610310114       -2.13259230991223
C           -5.91811069176301        0.76531693410064       -0.15541967337135
H           -6.13842101271051        1.14456331984418        0.85230604068563
C           -5.66265227496911        1.95642407539334       -1.08926687762838
C           -7.11647864143120       -0.09390795673687       -0.55235684973553
H           -4.68482576368817        2.37126482481790       -0.84730136960982
H           -5.59532886700500        1.60348864919570       -2.12460630718587
C           -6.70930829906051        3.07584760745274       -0.95354398566449
O           -7.80333406761066        0.18172869818983       -1.67728661797744
H           -7.71093509037915        2.64542048236185       -0.83224254783596
C           -6.42241919649499        3.93346936000415        0.27760920359249
C           -6.70428141562484        3.95133552661060       -2.20659898301738
H           -5.45348709182621        4.41900685879226        0.18254475022326
H           -7.18261200796604        4.70327135863127        0.38859211323091
H           -6.41730755552017        3.33093992827710        1.18272068985588
H           -6.96653591035721        3.37800695265422       -3.09440704452162
H           -7.42019067387833        4.76363399652027       -2.10608102614557
H           -5.71712672494194        4.38236697723113       -2.35881461014538
N           -7.38887554785706       -1.06129325234812        0.20183321121003
H           -6.87831238188229       -2.01340920792657        1.59846910429180
C           -8.43706960941434       -2.02206528573453       -0.03177851366889
H           -9.42199633233172       -1.53788513532034       -0.04164481006646
C           -8.26561865468818       -2.81957310181469       -1.32884461002863
C           -8.38971425378843       -3.00356452345370        1.15538345961356
H           -7.26254034353146       -3.23926330591511       -1.37260580650983
H           -8.99132667108841       -3.62797219051268       -1.34586812953789
H           -8.41901172444202       -2.17635622368872       -2.19079377197753
O           -7.35668742317424       -2.80331387620372        1.96091651444929
O           -9.19969917455338       -3.87485576737497        1.31550359395987
