42
 energy: -62.486133508841 gnorm: 0.000480137818 xtb: 6.7.1 (edcfbbe)
N           -1.46134051459074       -1.56265314373448        0.41530702042425
H           -0.89426417165465       -0.81055788363103        0.79303616826081
H           -0.83522062926018       -2.28224212861416        0.07374216920499
H           -3.09324539327317       -1.43169948181549        1.47474332271815
C           -2.31721608211375       -1.07077782924061       -0.66487382136983
H           -1.82429693319862       -0.35083332471783       -1.33196713461856
C           -2.83807815803508       -2.24467006396244       -1.49510451095797
C           -3.50990065751372       -0.39001936120845       -0.02620661563255
H           -3.30634028428911       -2.98153554717495       -0.84634919245999
H           -3.57558841091809       -1.88183626853776       -2.20410123692030
H           -2.02251635348175       -2.71973417386921       -2.03612137474147
O           -3.80615337437041       -0.81070794303080        1.22136398483858
N           -4.16533294429262        0.46351352790722       -0.67376862084777
H           -6.61314076987949        0.59148870039820        1.97179875109629
C           -5.34995417437760        1.04342234167777       -0.07677614153312
H           -5.09258516444125        1.49347252602305        0.89474122545997
C           -5.88064134005340        2.10892905304357       -1.04527078561069
C           -6.39964780549025       -0.02333784868318        0.13446402019186
H           -5.08139145113766        2.83022057272999       -1.22132941434479
H           -6.08265599017424        1.59317360631613       -1.98403244850490
C           -7.14401923426425        2.83310084103042       -0.57065789537631
O           -7.03935584267652       -0.02067770897475        1.36030494443989
H           -7.89157622353372        2.08887338013372       -0.27330854170039
C           -6.86127759886483        3.75380868010589        0.61583783373741
C           -7.72611516374098        3.64581945151164       -1.72545293432404
H           -6.11929435746011        4.50101886922608        0.34216344583423
H           -7.77029092141772        4.26914970536567        0.91770558276311
H           -6.48775428383916        3.20406671403265        1.47707359420008
H           -7.98256407692384        2.99498213323551       -2.55721440699744
H           -8.62594979432316        4.16824421370947       -1.40926126990638
H           -7.00402078084377        4.38174983129484       -2.07255761193003
N           -6.64356800540586       -0.83042052520162       -0.78700776965055
H           -8.68954272920796       -0.38970848530255        0.73109981060037
C           -7.57841987005758       -1.92452830393849       -0.76434997175210
H           -7.39040864460380       -2.48355667517623       -1.68854583627715
C           -7.41774328635417       -2.86893734777840        0.43518757996467
C           -9.04037898364608       -1.45587713450178       -0.82919199689559
H           -7.66321624370982       -2.37157616685482        1.37093839792948
H           -8.07073414451407       -3.72902625592800        0.30947658754128
H           -6.38631661471131       -3.21057376522846        0.48713850507803
O           -9.41977861735595       -0.59930852914167        0.11860342464198
O           -9.80435523773385       -1.85226390874071       -1.66234161021595
