42
 energy: -62.486133514127 gnorm: 0.000479148756 xtb: 6.7.1 (edcfbbe)
N           -1.81220626705773       -0.14636652910287        0.70888517720515
H           -1.04222837840748       -0.59113280736458        1.19854321811669
H           -2.34964288572638        0.38607908190757        1.38516276551098
H           -3.57553617748513       -1.07720334874017       -2.14925002643103
C           -2.68013966360850       -1.15798817628970        0.12323119927652
H           -2.13958920657379       -1.58657369086015       -0.73424402165453
C           -3.06032195812429       -2.28911961163459        1.09050124490291
C           -3.93328759397189       -0.45390693270821       -0.36282005516171
H           -3.66611106264141       -1.88426788927049        1.89664678336339
H           -3.62450721317415       -3.06710629110950        0.58408400769930
H           -2.15887483669023       -2.73415830921794        1.50828582453575
O           -4.24221211807395       -0.56398651994201       -1.67474873675007
N           -4.60834711745586        0.16617167973265        0.49455346001716
H           -8.10857308015091        1.65776525399152        0.46968399228030
C           -5.78147541779777        0.96259596000820        0.24072176659840
H           -5.85333818413995        1.62650172602780        1.11476939645862
C           -5.67656078235063        1.81396604664610       -1.04420750097461
C           -7.01546382758696        0.08881973843870        0.23896574450094
H           -4.66209333086208        2.22091340837596       -1.06041540415529
H           -5.77782331214331        1.14786838076616       -1.90194009618561
C           -6.66557324516919        2.97566189389258       -1.20244926272926
O           -8.21282210542589        0.70486895661466        0.35914230503628
H           -7.68724642329199        2.58570405457756       -1.27994998940000
C           -6.58836230105177        3.97879789801995       -0.05148438163803
C           -6.35935610732471        3.69218800650452       -2.51899019462332
H           -5.56921229384254        4.34329188286863        0.05762864447736
H           -7.23441370557573        4.83029859530872       -0.25470253209548
H           -6.89618864953446        3.54996386180966        0.90084446436922
H           -6.41416945129282        2.99931815341831       -3.35520425870102
H           -7.07329648023576        4.49437368824779       -2.69153082890146
H           -5.36021062009984        4.12145439427647       -2.49384945034488
N           -6.89787153534383       -1.16199242773652        0.19439385324657
H           -5.84881731568753       -2.57807419602902        0.25105038170190
C           -8.03006243249347       -2.05747955160135        0.20591092372606
H           -8.71452700220378       -1.83162077749672        1.03354307879063
C           -8.81434423061793       -2.01965746059721       -1.11002316419951
C           -7.46749998526543       -3.47520895389087        0.39837062206641
H           -8.13793584839691       -2.17978637730236       -1.94749805633797
H           -9.56384119358940       -2.80599763622831       -1.10168840331498
H           -9.30184965249359       -1.05523279968958       -1.22607129016872
O           -6.14113964036794       -3.51910512140512        0.35147356698467
O           -8.15911862428440       -4.44266296629658        0.55361022141938
