42
 energy: -62.486133523796 gnorm: 0.000479077475 xtb: 6.7.1 (edcfbbe)
N           -2.12052812551160       -0.38790131437731       -1.60650114479580
H           -2.16476263868230        0.56981546513603       -1.93807971875950
H           -2.05192157369029       -0.99600214097960       -2.41468761674024
H           -1.31809961055827       -0.34106900160430        0.20484005407875
C           -3.30297048350284       -0.71692744475460       -0.81035748574417
H           -4.24894245750836       -0.42468379052419       -1.28717940825707
C           -3.31097139275972       -2.22692550314085       -0.55706417148916
C           -3.12057362175129        0.02165963921452        0.52183542245028
H           -2.38515764741051       -2.53166412243983       -0.07236038987952
H           -4.14714991585494       -2.51307297370308        0.07367213880536
H           -3.39985266174572       -2.75880770579954       -1.50255131167893
O           -1.85946956538458       -0.01672138916366        0.95327630269038
N           -3.96429827473026        0.62797997646978        1.23964052733185
H           -5.04135776737460       -1.21081758916716        2.13967649023143
C           -5.36482677506642        0.79801331812801        0.91882183699814
H           -5.80542009871614        1.19371913348618        1.84742196543660
C           -5.59468586013352        1.83072544433732       -0.19382629896223
C           -6.04123050249597       -0.52838077427142        0.65936166107882
H           -4.83531140257586        2.60800098141776       -0.08703635592576
H           -5.45359767606392        1.34927681337748       -1.16212727809248
C           -6.98819820181163        2.47137232630437       -0.14806713662000
O           -5.71784851544703       -1.52013179874643        1.51875602379670
H           -7.72027778866740        1.68765676754773        0.06839611149925
C           -7.07008458809023        3.53911360407066        0.94055921779113
C           -7.32064983087129        3.09044275499370       -1.50487210532824
H           -6.37941438176678        4.35172454053964        0.72482143554403
H           -8.07566773893601        3.94963188410154        0.99217857971216
H           -6.82082499293671        3.13105277474013        1.91669558209544
H           -7.32424563744797        2.33813039013316       -2.29027736799376
H           -8.30223989004326        3.55702588294725       -1.47765870888147
H           -6.58802454374491        3.85308613203552       -1.76121858752040
N           -6.86758175239893       -0.66028979037823       -0.27910513880196
H           -7.56898061903889       -0.04399398567802       -1.84733884131073
C           -7.52930979514517       -1.91075306478525       -0.56821505601339
H           -6.88038300613708       -2.77879334292079       -0.39812494578235
C           -8.80355087244131       -2.07015368879865        0.26832635621232
C           -7.93165524816895       -1.86316288715982       -2.05006188289961
H           -9.45169061184291       -1.20687676117718        0.13006448720296
H           -9.33110896199068       -2.96606934066585       -0.04635369670827
H           -8.54498605479125       -2.15422646585133        1.32115706717310
O           -7.90526618453358       -0.63624290421793       -2.56009516261935
O           -8.25307703555025       -2.83357116910641       -2.67585173519726
