42
 energy: -62.486133504472 gnorm: 0.000481582164 xtb: 6.7.1 (edcfbbe)
N           -1.58644599609246       -1.77102127853058        0.32156063452686
H           -1.03844343516569       -1.10362787401136        0.85475652605680
H           -0.94517539433658       -2.43002877699662       -0.10447453381296
H           -3.31223663822906       -1.83326517324715        1.25966671631156
C           -2.37763394693032       -1.08848329163485       -0.70279647707848
H           -1.84083080750225       -0.28177678510720       -1.21965010048029
C           -2.87679378153484       -2.10236954949750       -1.73307816928269
C           -3.59290583488775       -0.49723807648991       -0.02030957798179
H           -3.39259318362181       -2.91806633676984       -1.23161289673226
H           -3.57127138313894       -1.61437191918166       -2.40938175068346
H           -2.04344909754444       -2.50838983983183       -2.30265817919252
O           -3.98935423759347       -1.14736807915617        1.09035600744025
N           -4.16436160969525        0.50505875082426       -0.51804834127459
H           -7.18351115407054        0.73310560739041        1.69822864453360
C           -5.38372998515768        0.99459797052761        0.08365839059641
H           -5.18912877655834        1.28997184137497        1.12668451650100
C           -5.83736730383996        2.20626068464591       -0.74898549386567
C           -6.45506068229340       -0.07046375234304        0.07730151713557
H           -4.99076250652069        2.89192756728989       -0.80690122015726
H           -6.03015700384572        1.83396445822382       -1.75584288936818
C           -7.07012796675266        2.95299724642705       -0.23058752109102
O           -7.40692248183957        0.02948236881929        1.07724130189061
H           -7.89360326447389        2.24385955778962       -0.09015934195775
C           -6.79129728813975        3.66830236495228        1.09149381385027
C           -7.51643626962462        3.97295395521579       -1.27726229576822
H           -6.00157865551676        4.40442102839575        0.95733520256923
H           -7.68426734176222        4.18487785390384        1.43682040572408
H           -6.47808125590997        2.98095440896826        1.87538217767678
H           -7.76975637484453        3.47619349894421       -2.21022366771928
H           -8.39176711737085        4.51726890594127       -0.93030977648668
H           -6.72088372047992        4.68853253535422       -1.47280155965555
N           -6.45124930190538       -0.94957990582922       -0.80874183010989
H           -8.82420978636172       -0.40291732581390        0.04969811015607
C           -7.37558386361683       -2.04151597251494       -0.96357398391809
H           -6.95021205299159       -2.66926331679366       -1.75557663052322
C           -7.56807854951043       -2.88939740568319        0.30141201490109
C           -8.75425634782795       -1.58396093760489       -1.46348987840530
H           -8.05864118215116       -2.32332956185306        1.09021817121832
H           -8.17145188951851       -3.76216468165409        0.06427862291973
H           -6.59657120110011       -3.21542227360616        0.66595138733518
O           -9.36412650981752       -0.65978067423004       -0.72193937644179
O           -9.26587607745961       -2.04295380788366       -2.44470351749541
