42
 energy: -62.486132272645 gnorm: 0.000626795530 xtb: 6.7.1 (edcfbbe)
N           -1.61374827294594       -1.18881976355341       -0.92452955657066
H           -1.00231845526104       -1.99579475913970       -0.93911848126102
H           -1.06288919879593       -0.39382505760801       -0.61205847181920
H           -2.89649899166266       -0.35204351132523       -2.04473788115222
C           -2.73942616474699       -1.39962114719096       -0.01358786276453
H           -3.13015408466192       -2.40745301867536       -0.20286328616086
C           -2.39863218217301       -1.26195873622162        1.46724661830502
C           -3.84008372103332       -0.42890645080615       -0.42416478842017
H           -1.97562922469204       -0.27879822215588        1.66434898823791
H           -3.30524305311461       -1.36775609207860        2.05276133090568
H           -1.68105556506455       -2.02332118150134        1.76627346643355
O           -3.74010370345056        0.00836570841983       -1.69880905851877
N           -4.75404277604322       -0.16336246303931        0.39363887599524
H           -6.37831787376228        0.50702541817910       -2.28012542598031
C           -5.86658911258698        0.72539856569578        0.11317307806227
H           -6.25801621099843        0.97019416032401        1.10793515386757
C           -5.53389342086720        2.02491733958583       -0.62578955909267
C           -6.91335226428421       -0.14246750689330       -0.55811227595029
H           -4.74823972324885        2.53024646537672       -0.05857083614960
H           -5.11580084162341        1.81278013278133       -1.61340993632790
C           -6.73953041546838        2.96488493147782       -0.76901212267433
O           -7.02097648354502       -0.10677556606204       -1.90030549170183
H           -7.59426365202406        2.39901367215319       -1.15749507052760
C           -7.14256697946123        3.57459801539031        0.57160462901312
C           -6.40387430460263        4.07568781059178       -1.76417288688746
H           -6.30793486600680        4.12070145487321        1.00639768436357
H           -7.96950006565533        4.26732072731487        0.43346926006771
H           -7.45974037416227        2.80876958182901        1.27419196792472
H           -6.16135848453670        3.66632846106823       -2.74296516090425
H           -7.24804387103966        4.75119040008460       -1.87884358656022
H           -5.55032428476829        4.65158229468747       -1.41255283592210
N           -7.55586820039260       -0.95447626597413        0.15841198366180
H           -8.09972731625809       -1.51093411676253        1.79210913348374
C           -8.48735465550041       -1.90519951203843       -0.40423597718546
H           -9.15375795940317       -1.43865999556690       -1.14067238747511
C           -7.76528369242392       -3.08386122566539       -1.06736315711117
C           -9.33372862623160       -2.44880431318668        0.75700829879424
H           -7.05853025393827       -3.52395060017491       -0.36650854985349
H           -8.49565762399713       -3.83370137753785       -1.35806161807803
H           -7.22653950098534       -2.74210090675238       -1.94745583905621
O           -8.88027058966687       -2.09335676586757        1.95194422897225
O          -10.29732421358436       -3.14508239019985        0.59394262319679
