42
 energy: -62.486133515556 gnorm: 0.000479451271 xtb: 6.7.1 (edcfbbe)
N           -2.70545247759086       -2.61316072746767        0.56927739270717
H           -3.11563243116044       -2.82219752536486        1.47386833648793
H           -1.77643746568420       -3.01662933495174        0.54786140231266
H           -4.29223992481282       -2.50373234578239       -0.53999550564568
C           -2.64845662015202       -1.16820814102739        0.35338975681465
H           -2.32115118864269       -0.59721844104079        1.23316496773183
C           -1.71767707971492       -0.85738349003471       -0.81956590052571
C           -4.05567557444975       -0.72042514384412       -0.00868599202753
H           -2.03505534929043       -1.40435789464994       -1.70508354506527
H           -1.74300099309329        0.20736381315180       -1.03035719041231
H           -0.69648057089561       -1.14526559299140       -0.57914554928505
O           -4.80004092252346       -1.66833817298769       -0.60280805027276
N           -4.39062294220075        0.46704670291334        0.21919855586469
H           -6.60622975930989        0.21649350995777       -2.23389785489435
C           -5.69548879426432        1.02620738558812       -0.06254078121456
H           -5.97583871866017        1.53279648106133        0.86843884636510
C           -5.53303846950383        2.07691205536051       -1.17036014986374
C           -6.77439843638918       -0.00527625756237       -0.33832738924697
H           -4.70959003687514        2.72756537461230       -0.87004076326921
H           -5.21412758132631        1.58383495907998       -2.09624403592686
C           -6.78428886019872        2.92686266705344       -1.42870542536589
O           -7.14309672545958       -0.27848380442783       -1.60304192540542
H           -7.65061692159543        2.27129075308580       -1.57283653361865
C           -7.08093577289290        3.85236943529478       -0.25118035891623
C           -6.58609158514675        3.75091894002184       -2.70088631607588
H           -6.22665442730963        4.49464992064250       -0.04894121169110
H           -7.93792273522836        4.48230082269537       -0.47760890097724
H           -7.30908656359099        3.28517730300007        0.64705341390793
H           -6.40799222080242        3.10944656225361       -3.56182680044058
H           -7.46799496872896        4.35337338960949       -2.90403289567532
H           -5.73415408978260        4.41808295436290       -2.58876603347474
N           -7.27714096754502       -0.58971031759573        0.66046219310147
H           -7.57160298058960       -0.65394179980533        2.43514567695255
C           -8.29245631323003       -1.60912075318137        0.52195143996065
H           -9.05148570412119       -1.33175928599234       -0.22017696891559
C           -7.69147562865922       -2.96406826904441        0.13128939011698
C           -8.96485635115602       -1.76287335070092        1.89330366724968
H           -6.93273594933846       -3.25347797048420        0.85557277810224
H           -8.47681466480765       -3.71429981625211        0.11718002718515
H           -7.23317175451018       -2.89232912906901       -0.85112256700947
O           -8.32214732597407       -1.12822558619781        2.86742985962631
O           -9.95683344483210       -2.41423563245704        2.07052603386963
