42
 energy: -62.486133514255 gnorm: 0.000479754237 xtb: 6.7.1 (edcfbbe)
N           -1.39787078759906       -1.77312468795271        0.91467196020046
H           -1.35211578984405       -1.50617678146473        1.89261394254219
H           -0.46638417809118       -2.04258643940504        0.62155534950509
H           -3.20425983109437       -2.43264877536842        0.79552188957822
C           -1.89875260086636       -0.66859458371775        0.10091214553547
H           -1.50674641179862        0.31531173489129        0.39035393372924
C           -1.57082381743062       -0.91975063698560       -1.37228289880220
C           -3.41254258687582       -0.64311775565854        0.25745221428192
H           -1.95214637122453       -1.89061900024437       -1.68327681282204
H           -2.02085212318157       -0.14326636554072       -1.98421775913931
H           -0.49436711224286       -0.90455252577987       -1.52718612214852
O           -3.95234255554635       -1.82885169175344        0.60873392609343
N           -4.01653199025490        0.43945383954840        0.06225937577808
H           -4.94008024996527       -1.24667596236751       -1.39679356548360
C           -5.44224669916271        0.65165056489531        0.08680346987543
H           -5.71751770107312        0.94467444433490        1.10538232110189
C           -5.69301534505452        1.84513165892742       -0.86472696829180
C           -6.33727832131388       -0.49671034087477       -0.32501438467377
H           -4.93799072485776        2.59388318328450       -0.62116843599760
H           -5.50321665979805        1.50666772760784       -1.88670626980331
C           -7.08395036709283        2.47815578554153       -0.79838428436334
O           -5.87757586513187       -1.39161310928457       -1.21901372418087
H           -7.83219565692004        1.70788841508299       -1.00583268207064
C           -7.37247701336974        3.08195857289154        0.57305101489923
C           -7.19564315409769        3.55744527609170       -1.87472229529634
H           -6.62538054537311        3.83326408984787        0.82173518233697
H           -8.35055077431918        3.55650486057468        0.57246951428113
H           -7.37030076518488        2.32032414760155        1.34787366680766
H           -7.01760839848122        3.13974419338268       -2.86303961869639
H           -8.18943333982461        3.99779956432159       -1.86526312335698
H           -6.46798845515402        4.34728609045893       -1.69917745851712
N           -7.55329635961630       -0.44169307936547        0.00893772249156
H           -8.96000083136688        0.46741300525529        0.72456319887821
C           -8.51293754286134       -1.40972264420273       -0.47208814977421
H           -8.39222976032028       -1.60518652660336       -1.54563038219030
C           -8.40788156854234       -2.73752124450313        0.28602723980336
C           -9.91080117449429       -0.82360982656901       -0.22895403785567
H           -8.49609144239262       -2.56129225597538        1.35618314549040
H           -9.20835462667145       -3.39854886779906       -0.03419175218078
H           -7.44710244752238       -3.20325504621871        0.08213582832859
O           -9.90503311029580        0.26738878682452        0.52817651696916
O          -10.91227619056805       -1.31485376132961       -0.67080732463648
