42
 energy: -62.486133515968 gnorm: 0.000478995833 xtb: 6.7.1 (edcfbbe)
N           -1.36910332990367       -0.68343838059329        0.51930417114628
H           -0.61349194152411       -1.33487323917369        0.34324544488611
H           -1.46216653628946       -0.59171460883441        1.52756149145906
H           -2.00940507746970        1.03214252515075       -0.06579100985627
C           -2.62471928723267       -1.17799529421781       -0.04565909355528
H           -2.41617221804451       -1.47683567345724       -1.08157359584968
C           -3.24727674549600       -2.35336372223131        0.70249025904767
C           -3.58179023584678        0.00772558168177       -0.11906300800453
H           -3.42797457505246       -2.08334686791698        1.74046616928653
H           -4.19941308222567       -2.60388782249571        0.24843108504789
H           -2.58864703979839       -3.21882564985254        0.66890094318044
O           -2.96576077373173        1.20688948615358       -0.18153929951655
N           -4.81259575206263       -0.22100509185685       -0.11687588639862
H           -7.38113921993950        0.86918509657262       -2.20070707595449
C           -5.88448335729075        0.74384551266569       -0.20014382799511
H           -6.05764611505381        1.11380121812800        0.81951913429836
C           -5.65001014439183        1.94129961755434       -1.13108817112441
C           -7.09878900863239       -0.10189607373525       -0.56842226527244
H           -4.67817726839012        2.37004433407534       -0.88782844634024
H           -5.57987805192092        1.58913377089821       -2.16693004690993
C           -6.71653849928086        3.04097204224616       -0.99327448360088
O           -7.76368537833004        0.12591373930389       -1.71707163756264
H           -7.70896627475928        2.58952542684339       -0.87384181343348
C           -6.44637446114567        3.90173874373930        0.23924098519322
C           -6.72944208479328        3.91838133491206       -2.24494009692059
H           -5.48506501385581        4.40262536616265        0.14713029664351
H           -7.21941329226399        4.65878324504475        0.34915019714896
H           -6.43362394241477        3.29806078522987        1.14329594384847
H           -6.98059763882018        3.34121966620968       -3.13347869556155
H           -7.46233579684972        4.71505811870349       -2.14240060745555
H           -5.75178984867413        4.37076264643712       -2.39668277455085
N           -7.40306778210497       -1.02807092921459        0.22580804390113
H           -7.00586704361461       -1.92534435860317        1.70823787615655
C           -8.47376263144962       -1.96743979437522       -0.00076003933346
H           -9.43224221658383       -1.45650922958558       -0.15665858452364
C           -8.20977950500714       -2.89775365414995       -1.19010515972745
C           -8.57159250604871       -2.82877295746603        1.27096552339573
H           -7.23298679991810       -3.36504223310114       -1.08215796160358
H           -8.97412554286349       -3.66946040806607       -1.21563145026668
H           -8.23234699676440       -2.33405159516509       -2.11866204565417
O           -7.56308013266647       -2.63858635671882        2.11044328262127
O           -9.46086812028865       -3.61092016343629        1.46603140659015
