42
 energy: -62.486133518320 gnorm: 0.000479162582 xtb: 6.7.1 (edcfbbe)
N           -2.11709477032830       -0.48672824612147       -1.63827226587174
H           -2.12233421000787        0.48288308013875       -1.93738481104815
H           -2.02476770185442       -1.06504078478426       -2.46580572701003
H           -1.44253700883279       -0.54140679682764        0.21837658444377
C           -3.35512548052015       -0.81372954448288       -0.92335619601748
H           -4.26858900945533       -0.49788378632829       -1.43885253934982
C           -3.40215884246746       -2.32651705560213       -0.70023597820093
C           -3.25145233957525       -0.13688780004873        0.44375880172638
H           -2.49838536830206       -2.66207216779024       -0.19545957294354
H           -4.26336826662868       -2.57843847013469       -0.09117320295833
H           -3.48216996412349       -2.84303903703810       -1.65435296501789
O           -2.01233753618173       -0.22230591384789        0.94689381443697
N           -4.09847268418977        0.46057884772474        1.15671492142475
H           -7.64502784994062        0.47488714789611        1.88109644744444
C           -5.46032536516519        0.82251256317829        0.91784759615149
H           -5.78839147980900        1.23055017846408        1.88659620299789
C           -5.52722272219113        1.95525095431022       -0.13591551657764
C           -6.44884867360224       -0.25305465425469        0.52118008663403
H           -4.75556560685237        2.68365573781852        0.12109952352669
H           -5.27357833725434        1.51875984249496       -1.10320533699718
C           -6.88228290833021        2.66402130257933       -0.24682214953074
O           -7.65504334729785       -0.20492328832937        1.19561439882203
H           -7.67455636230021        1.91603897017897       -0.36285686843157
C           -7.17959358124770        3.52465238929715        0.98011866829728
C           -6.88850993298194        3.54086712234217       -1.49850665486596
H           -6.41823257603392        4.29367527514764        1.09003764187716
H           -8.14551150803998        4.01250352760478        0.87059853129086
H           -7.20099999730036        2.94040878519444        1.89750568747780
H           -6.73810968965259        2.93783647651815       -2.39060709639436
H           -7.83984481511393        4.05825744343268       -1.59434800764331
H           -6.09616381456008        4.28436983883736       -1.44486966600041
N           -6.18934018001286       -1.09300832293825       -0.36671140851055
H           -8.74514261505265       -0.54743119330053       -0.22888301267459
C           -7.05063077673191       -2.14016412470173       -0.85837509151707
H           -6.41669663496788       -2.75170812750707       -1.51104915894248
C           -7.66880138937848       -3.03644700007649        0.22127890176802
C           -8.16271081257021       -1.56579245143490       -1.75042771298236
H           -8.36031814939071       -2.48754755259063        0.85648508741725
H           -8.20144709193457       -3.85618273243091       -0.25453295689034
H           -6.87901110267524       -3.44611564460515        0.84761139171026
O           -8.98623713449472       -0.69921120126338       -1.16232604134147
O           -8.28925309299405       -1.87806985407814       -2.89954443899346
