42
 energy: -62.486133527015 gnorm: 0.000477871695 xtb: 6.7.1 (edcfbbe)
N           -1.41563347312220       -0.43765025292560       -1.96995719264146
H           -0.74138658302080       -1.06853279512917       -2.38542701358445
H           -0.89788849906839        0.30058986557056       -1.50140427494988
H           -3.01573780263945        0.49576668287480       -2.44152807434138
C           -2.26650541364083       -1.13506947675914       -1.00846749362885
H           -2.60015135914834       -2.06657546667097       -1.48475265154623
C           -1.58458253199956       -1.46402092470161        0.31800121604477
C           -3.51864799349751       -0.28226064728974       -0.81202515738759
H           -1.24874088509507       -0.55003733513508        0.80353913938169
H           -2.28664722115447       -1.96228611009963        0.97741777860215
H           -0.72720823898967       -2.11346402741247        0.15165651565614
O           -3.76625234259590        0.56811799850718       -1.81547924308320
N           -4.20385975993933       -0.46202700053090        0.22610769019668
H           -5.49194960106206       -2.04005483020959        1.30601237323614
C           -5.46176062318243        0.19172569521802        0.54294228890953
H           -5.44593685543699        0.30944070557833        1.63703326658554
C           -5.75023608604915        1.54413545142235       -0.10974588965080
C           -6.50232291600880       -0.85934990820935        0.21375131826696
H           -4.86613463695636        2.17525380816387        0.00023146678696
H           -5.91878026169704        1.38571834186209       -1.17383231701477
C           -6.96233432086095        2.25640193103987        0.50354053214268
O           -6.34244947207650       -2.04092440081184        0.84471879082410
H           -7.76020148686372        1.52158032697057        0.64717365165979
C           -6.62051793735961        2.88246705674222        1.85452961605696
C           -7.46460898432361        3.33655250649785       -0.45282455198441
H           -5.83955088180476        3.63131490157566        1.73732264433591
H           -7.49679390411833        3.36764543878102        2.27847384260337
H           -6.27470291480880        2.13525750699128        2.56477885055473
H           -7.77651495288895        2.90262637904232       -1.39960228241693
H           -8.31398335413920        3.86148354735413       -0.02158843818750
H           -6.67811310046958        4.06226357977352       -0.64952058147825
N           -7.38526363873253       -0.64309796274076       -0.65386752157602
H           -8.06238812061403        0.41158679357792       -1.94816230946528
C           -8.34703620442418       -1.64446659724027       -1.04996927011567
H           -7.87236122500179       -2.61764252879825       -1.22901771744203
C           -9.45292618718346       -1.82012686613423       -0.00349147332617
C           -8.98975829903393       -1.15134076254622       -2.35599399727986
H           -9.91285190093455       -0.85859816528434        0.21669067050386
H          -10.20997513278022       -2.49547226752387       -0.39197453124740
H           -9.03431058098244       -2.23223733403600        0.91122729591706
O           -8.69160823602322        0.10858757678287       -2.64626575405232
O           -9.70757734424956       -1.83530621176482       -3.03131607493288
