42
 energy: -62.486133517522 gnorm: 0.000479310276 xtb: 6.7.1 (edcfbbe)
N           -2.16087396519589       -2.42314905498155       -0.76312188974507
H           -1.22597629042492       -2.79810997787550       -0.65757428936836
H           -2.35282971227676       -2.35393882266661       -1.75895415231986
H           -3.94314951117706       -2.66576053273636       -0.13603044805268
C           -2.26787022897365       -1.10055702643449       -0.14909465935486
H           -1.82823392778395       -1.17139263878689        0.85427978489605
C           -1.57708370307845        0.01820436839636       -0.92483197710246
C           -3.75693743139134       -0.81043420624780        0.03567095138493
H           -1.98453884257116        0.07899136680508       -1.93188782114123
H           -1.75710123490347        0.96434858311348       -0.42664087357426
H           -0.50562744784563       -0.16313707376476       -0.98430278363116
O           -4.52701805736437       -1.90920503312719        0.08047760615692
N           -4.11065090457065        0.38176357232275        0.19654431098834
H           -6.43424122447838        0.32214166822403        2.44709346253134
C           -5.44964914177156        0.90081146752397        0.29727599842298
H           -5.41537196188083        1.61245678370454        1.13580696934399
C           -5.73661932173301        1.67392596071418       -1.00150755806586
C           -6.55257434589179       -0.10353680593254        0.54667371738961
H           -4.86535320801571        2.29097261731999       -1.22529506027780
H           -5.85145520419264        0.92968088790072       -1.78952699132951
C           -6.99473270318659        2.54529010343651       -0.93953659784657
O           -6.98738237008565       -0.20508366265294        1.85830492343802
H           -7.82108834125976        1.94111312097226       -0.54980435436069
C           -6.80188120792101        3.76272273076913       -0.03762165508366
C           -7.36382985200538        2.99941940884938       -2.35031319008751
H           -5.97604895630903        4.37236672411568       -0.39845648934092
H           -7.70217540840929        4.37276212830283       -0.03319093635010
H           -6.59062168641467        3.47350148198144        0.98903329341030
H           -7.56351926365727        2.14056210006551       -2.98562571762161
H           -8.25408886553072        3.62331328161184       -2.32918624524222
H           -6.55054028797311        3.57420990842819       -2.78860631858655
N           -6.99725851818100       -0.78698835057544       -0.39949457926475
H           -8.75357706052911       -0.36052516821241        1.43117323845162
C           -8.00890551761047       -1.80787983280261       -0.34081812486407
H           -7.99348277100575       -2.28634939295298       -1.32688368550580
C           -7.78165257956942       -2.87429255840827        0.73906115560227
C           -9.41174685301226       -1.21066740383096       -0.16157600871110
H           -7.91323016285587       -2.46665392457030        1.73901675903624
H           -8.48394572270814       -3.69149186253207        0.59498951453014
H           -6.76576304175877       -3.25147785883836        0.65167016513425
O           -9.57450564521749       -0.43180093697106        0.90898391583272
O          -10.31305875657123       -1.43815167080128       -0.91723820061188
