42
 energy: -62.486133513032 gnorm: 0.000479746715 xtb: 6.7.1 (edcfbbe)
N           -3.02188946587395       -2.69946048131694        0.53858398157225
H           -3.56989844160772       -2.96749864224138        1.35011734262590
H           -2.11718653908126       -3.14997501096407        0.61278922364895
H           -4.42591093771001       -2.36979678034814       -0.79099973223337
C           -2.87292272003951       -1.24612510566501        0.48180991372054
H           -2.62592299473230       -0.78251724994328        1.44655836058556
C           -1.79727419257742       -0.87974018598043       -0.54166294635161
C           -4.20566668267589       -0.68965289097284        0.01335671369852
H           -2.03177292709819       -1.32316077757504       -1.50718662529349
H           -1.74828508098780        0.19970967990932       -0.64812658769246
H           -0.82585351394601       -1.24607721849513       -0.21668988159611
O           -4.88836052373979       -1.50762185282415       -0.80590075462010
N           -4.54481066696523        0.46669030292555        0.36686247962348
H           -7.08289611477108        0.57750614192025       -2.10968761308763
C           -5.80215370174632        1.07601847086467       -0.01660015169606
H           -6.10180025167624        1.65397234972610        0.86701235397204
C           -5.54601319294600        2.04541025997877       -1.17889409155397
C           -6.90512993977151        0.06050366128228       -0.27079402655467
H           -4.61905791496276        2.57510016916360       -0.94952442930263
H           -5.35424499823366        1.47251211250279       -2.09338205739517
C           -6.66821978695584        3.07200923249450       -1.39924062524488
O           -7.49029834043865       -0.02785332195503       -1.47781798741385
H           -7.64396461193021        2.58381519749777       -1.29050369526951
C           -6.58792421546770        4.19324028294735       -0.36555842341880
C           -6.57253658275550        3.65704729054669       -2.80829739514580
H           -5.65068633780376        4.73585824516847       -0.46840692642242
H           -7.40747218806689        4.89445772212296       -0.50433970373564
H           -6.64686254072043        3.79861277845858        0.64538328343924
H           -6.68939363294690        2.88581080319194       -3.56786522170403
H           -7.34850994238587        4.40283046356185       -2.96258814455167
H           -5.60591844363248        4.13504599788316       -2.95239227849694
N           -7.22858046277609       -0.68217617190809        0.69642632088387
H           -7.16672397901715       -1.03653575506587        2.44861274823359
C           -8.25540494774164       -1.69231119497398        0.58508187479104
H           -9.15390081964109       -1.30234553283231        0.09005574075762
C           -7.77454336139673       -2.93319910271612       -0.17549241697005
C           -8.61770841229878       -2.11843112852685        2.01541004962655
H           -6.88858029737598       -3.34232019008049        0.30561388085909
H           -8.56120263191422       -3.68231940334025       -0.16919998388897
H           -7.52953391710668       -2.66664025063358       -1.19982331644340
O           -7.79667780101695       -1.62338771639204        2.93452433379577
O           -9.53449721883953       -2.84903097156673        2.27171160273859
