42
 energy: -62.486133512225 gnorm: 0.000479809904 xtb: 6.7.1 (edcfbbe)
N           -0.98572244200913       -0.47522806281401       -0.94535428608110
H           -0.31833014462182       -1.08205877639886       -1.40631013393971
H           -0.63687655435593       -0.29269562137433       -0.00790881277458
H           -2.01412034106733        1.12497727298823       -1.28960346507314
C           -2.30052080534041       -1.11073684331545       -0.86819946739078
H           -2.53999980841936       -1.48035813129950       -1.87420324372523
C           -2.39750772799277       -2.26588238071641        0.12488964017683
C           -3.31949071010012       -0.01538423731067       -0.56836935539046
H           -2.13547773109903       -1.92456495979244        1.12466878644320
H           -3.41745141118663       -2.63384448141729        0.14439859623715
H           -1.72616208327211       -3.07295408289827       -0.16179444119308
O           -2.92899376301420        1.21274388254173       -0.95370779612990
N           -4.39735161027641       -0.33817599620170       -0.01579273168348
H           -6.63028547082228       -0.56633928040100        2.15596895513226
C           -5.51265017504950        0.53141008252306        0.28375847048083
H           -5.37861722177435        0.88558400336420        1.31694500679455
C           -5.72897666622147        1.73027475096321       -0.64906114294847
C           -6.71935403350871       -0.38498268621202        0.22113684290334
H           -4.84241891311575        2.36292598611826       -0.63331069437451
H           -5.85391162186968        1.32845816333177       -1.65495726484594
C           -6.95792825648439        2.57059026804324       -0.28417093747038
O           -7.21481008378240       -0.82562245929141        1.43398230013431
H           -7.82100608575638        1.90656000071108       -0.16559836047892
C           -6.75089571612890        3.34807704054883        1.01459679086471
C           -7.26018546134421        3.54007253819015       -1.42485869023902
H           -5.87620729283807        3.99053935839615        0.93464676928409
H           -7.61704659893230        3.97303471373946        1.21979665821372
H           -6.61254434148451        2.68361897523210        1.86458348442645
H           -7.46709474631419        2.99384633383394       -2.34135077384238
H           -8.12796100483726        4.15091476312234       -1.18732303559797
H           -6.41131610668174        4.19832577752123       -1.59774338434939
N           -7.17024814503831       -0.72668543893042       -0.89195622451998
H           -8.96854473394462       -0.71696097746640        0.96158000332782
C           -8.25560443478890       -1.63531405787768       -1.15352555553211
H           -8.24217168237452       -1.79670842391089       -2.23769493993874
C           -8.13873920975427       -2.99083819504772       -0.44298311418753
C           -9.62384176273839       -1.02106113551478       -0.82057593548794
H           -8.22265591982620       -2.88540283950661        0.63630378388350
H           -8.92546944915062       -3.65306315730082       -0.79582192474030
H           -7.17196883368875       -3.43268125884453       -0.67322596562386
O           -9.77326429705656       -0.57879341867002        0.42825554023837
O          -10.51246786494153       -0.95764284272272       -1.62117488158243
