42
 energy: -62.486133517523 gnorm: 0.000478718258 xtb: 6.7.1 (edcfbbe)
N           -1.70305594481956       -2.15338992679509        0.59894242943139
H           -1.83877166401194       -2.21196158331310        1.60292008859828
H           -0.73705449004399       -2.38589570617710        0.40131275591061
H           -3.45516517478374       -2.59771295861050       -0.05312397074038
C           -2.02530915423924       -0.81313948161519        0.11290295323188
H           -1.66988212892394       -0.00335267389608        0.76414113922545
C           -1.44504109450959       -0.61776781094814       -1.28840051304698
C           -3.54282685006523       -0.72314260429144        0.02438301780660
H           -1.79563296280327       -1.40452562187766       -1.95376496186039
H           -1.75494368034867        0.34663342026336       -1.68023108103600
H           -0.35826865430297       -0.64984766594988       -1.25530526668632
O           -4.14952732026613       -1.91484126468793       -0.15885398617465
N           -4.08062507227847        0.40424944666805        0.11209254844953
H           -5.46561326801747       -0.95958242906129       -1.77228555066083
C           -5.47715612552152        0.74138712166340        0.01937382805698
H           -5.73862387298282        1.17420037348660        0.99051249133771
C           -5.59814266586415        1.83612671787530       -1.06254698596140
C           -6.48488835222361       -0.34823112662970       -0.27334670259632
H           -4.86159834294649        2.60528065668286       -0.82560042548947
H           -5.32049780521261        1.40229854080585       -2.02801237962116
C           -6.98931137719959        2.46691312306156       -1.18018281273459
O           -6.34223271045607       -1.08497624951913       -1.38955562958839
H           -7.72599588606833        1.67333156275224       -1.34391396389535
C           -7.37424720523967        3.23057471016484        0.08349446521127
C           -7.01524088581226        3.40562537517305       -2.38594103307823
H           -6.63469785624187        3.99799049228992        0.30229530955050
H           -8.33972783755137        3.71161745920926       -0.05166863117883
H           -7.45004423460886        2.56328360554188        0.93706767136166
H           -6.77601198022426        2.86967234400233       -3.30193175790039
H           -8.00124495695274        3.84908367941208       -2.49905707495394
H           -6.29091508760052        4.20725890596841       -2.25719539301226
N           -7.50942739918706       -0.41516350547046        0.46033256956666
H           -8.61893512498704        0.34289295757257        1.67019114829842
C           -8.57265904078406       -1.35556497237525        0.18144522484881
H           -8.79647960492865       -1.41489207431252       -0.89137200202308
C           -8.22547204399477       -2.75816671580665        0.69233613406657
C           -9.82330826289828       -0.86197085949513        0.92121196834679
H           -7.97452290255268       -2.71512210611262        1.75033416183207
H           -9.08068645098830       -3.41358947611520        0.55421032249340
H           -7.37312971136672       -3.14918719404403        0.14235991576240
O           -9.57840725713436        0.13522578155886        1.76393444167068
O          -10.91086882165368       -1.34364796527038        0.76543036343257
