42
 energy: -62.486133530242 gnorm: 0.000477319394 xtb: 6.7.1 (edcfbbe)
N           -1.67932383287876       -0.72501973175740       -1.94861949470591
H           -1.03809310836984       -1.42781487132755       -2.29574707853680
H           -1.12516607609786        0.01403549829680       -1.52453766398341
H           -3.24418721078182        0.24317406886672       -2.52241072882747
C           -2.59049881282309       -1.29295782120986       -0.95557503974726
H           -2.99638242226772       -2.22033808148188       -1.37899154661287
C           -1.95232644515098       -1.59534947369888        0.39775456702186
C           -3.77592645623865       -0.34202268487168       -0.82295965471276
H           -1.50444698816220       -0.69377472816980        0.81119971696848
H           -2.71993906835812       -1.94071380887085        1.08077477276425
H           -1.18338071672436       -2.35881145840592        0.29672283462684
O           -3.97102007602068        0.43901888925052       -1.89691358573738
N           -4.46354399147299       -0.39440568837498        0.22547887090814
H           -7.89533822971933        0.51721687419333        1.40875644735497
C           -5.65253448590838        0.37064289172132        0.49451618833046
H           -5.68003784301629        0.45945111774327        1.59125760012676
C           -5.69119854110791        1.77880844772179       -0.13834574853561
C           -6.85224679077039       -0.44520389429746        0.07071630845177
H           -4.71590307152109        2.23567727142391        0.04632497829487
H           -5.80076924770582        1.65919316087132       -1.21636123308760
C           -6.78050854272950        2.73073943639006        0.36983752388354
O           -8.03895142804372       -0.14100868982477        0.71802693576910
H           -7.76814344987333        2.28981251602358        0.19367917205760
C           -6.62664720473596        3.05678808835771        1.85576751387380
C           -6.71531150959564        4.02522955630486       -0.44170935233536
H           -5.65111136566815        3.50151464987476        2.04029478981354
H           -7.38905212068200        3.76895073848890        2.16458028350291
H           -6.71722073760039        2.17614699210540        2.48970179268054
H           -6.85565995225442        3.82018431390317       -1.49997116363285
H           -7.49106478961986        4.71663762280035       -0.12036261412347
H           -5.74914487396470        4.50750060175907       -0.31041745059794
N           -6.72992645376610       -1.33940218985056       -0.79151077163846
H           -9.08530619380084       -0.28734128719624       -0.75686021626712
C           -7.75155213748870       -2.22115497112012       -1.29078692245023
H           -7.22327432517567       -2.94972723462549       -1.91666841472205
C           -8.53420640848973       -2.96987581513543       -0.20280502789943
C           -8.75165102214315       -1.50044417438710       -2.20797443637056
H           -9.13038248278150       -2.28954861840168        0.40135615598034
H           -9.19325739003053       -3.69834024296194       -0.66864921025528
H           -7.83501331461749       -3.48928625089904        0.44857560105646
O           -9.37484356074832       -0.45023343207710       -1.67429548405488
O           -8.98169858435637       -1.86997355771811       -3.32391404807790
