42
 energy: -62.486133519236 gnorm: 0.000479687935 xtb: 6.7.1 (edcfbbe)
N           -2.13668896512578       -0.63378197460361       -1.72697489550894
H           -2.17716008905624        0.30868277428091       -2.10192024924367
H           -2.03832266404188       -1.27332481319184       -2.50759857204066
H           -1.43691675917053       -0.47515330500446        0.08991355621720
C           -3.35586275655467       -0.94040178812357       -0.97063779008553
H           -4.28119519231526       -0.68915451133910       -1.50013607141194
C           -3.35069085910991       -2.43059512254182       -0.62715589660499
C           -3.26028372529017       -0.14859464358169        0.33413003658592
H           -2.42726765306062       -2.69392806240704       -0.11521893373543
H           -4.19237571927061       -2.65748136113461        0.01780482242053
H           -3.42978703383487       -3.02504099914215       -1.53464488522080
O           -2.00384585001262       -0.11755600922987        0.80327661448459
N           -4.11195670082942        0.47848470004425        1.01187015259809
H           -7.83437503835368        0.65735632092026        1.37787005873497
C           -5.50238344996440        0.75062411662682        0.86736405460994
H           -5.82947036872405        1.00493193858282        1.88717493209321
C           -5.60360198754313        2.01957104057032       -0.02744177856860
C           -6.47303290224893       -0.28347358099980        0.33886781573291
H           -4.79911942321637        2.68426321774658        0.29426664967910
H           -5.38662051634405        1.70675677009031       -1.05157249638671
C           -6.92340315045784        2.79860062224028       -0.00856366457613
O           -7.77700954670603       -0.08421981916912        0.76252401165653
H           -7.75176891584470        2.13738691178725       -0.28564112036237
C           -7.20077829582842        3.42157922856328        1.35934928533612
C           -6.85762102859110        3.90310594876696       -1.06416136470143
H           -6.40012946039235        4.10889028964282        1.62279809993806
H           -8.13524426556095        3.97797158234466        1.33630650561342
H           -7.27299938554167        2.67813507123472        2.15131075102225
H           -6.70725362396494        3.48005623259061       -2.05438967169601
H           -7.78380267778521        4.47267029665090       -1.07417008422487
H           -6.03700909969994        4.58444759807786       -0.85120490455057
N           -6.13024512711171       -1.24039003501934       -0.38595404530274
H           -8.59982933559351       -0.48983010306017       -0.81459228097824
C           -6.98008312656008       -2.26581602193398       -0.94047707513991
H           -6.29540556493665       -2.99348452303106       -1.39123668739013
C           -7.87740367575206       -2.98681057248649        0.07235319645484
C           -7.83661900958901       -1.70807692118029       -2.08771648271006
H           -8.62445873719138       -2.32150349391447        0.49902807112411
H           -8.38207936637508       -3.81395424246116       -0.42078955095093
H           -7.26448738555500       -3.37941068347275        0.88086735438749
O           -8.67247804540328       -0.72388159664204       -1.75938591036197
O           -7.76512476842445       -2.12967441904243       -3.20655551854989
