42
 energy: -62.486133516014 gnorm: 0.000479731092 xtb: 6.7.1 (edcfbbe)
N           -1.61267207374063       -1.78495453706505        1.01060177487490
H           -0.61624198766531       -1.96489614960000        1.00756881734748
H           -2.08403619160913       -2.66810618061339        0.83471576173043
H           -2.97418414617451       -0.88555565192357        2.06876799039935
C           -1.97462135552898       -0.81373805501220       -0.01910074479311
H           -1.28322720455357        0.03379822326546        0.07564053201971
C           -1.92180405779160       -1.34498739914077       -1.45092193763567
C           -3.35818581411222       -0.28702255066135        0.33253193433564
H           -2.59174502388246       -2.19588301280450       -1.56208517818315
H           -2.23130669037437       -0.56435586886035       -2.13796275397735
H           -0.91055348444732       -1.65958236444052       -1.70069092309605
O           -3.70149801225449       -0.40862763385162        1.62135525923387
N           -4.06888768866834        0.24546788863073       -0.56120331082980
H           -5.11357350133461       -0.98205172901514       -1.81916995177995
C           -5.40200509401637        0.72800942519329       -0.24949687185521
H           -5.50202100716952        1.01499583260521        0.80204555900282
C           -5.69509869777777        1.92493341804304       -1.16881494985234
C           -6.36573529154513       -0.40068238100059       -0.53552060395948
H           -4.93182693329183        2.68196226726147       -0.97793475306815
H           -5.57516904693473        1.59159088796756       -2.20260332407599
C           -7.08558464486790        2.54124469038188       -0.99129273100402
O           -5.99196972875439       -1.25714158346924       -1.50351885300190
H           -7.83608215424175        1.75319622926599       -1.10741805307299
C           -7.25484849709416        3.17209401525560        0.38837395201989
C           -7.31609831824751        3.59232806284779       -2.07632462794185
H           -6.51031876924881        3.95065013468702        0.54291342738272
H           -8.24196839522705        3.61905620219923        0.47570252031336
H           -7.15074199436959        2.43010399008939        1.17479026751985
H           -7.23563957779186        3.15123217331797       -3.06723567391063
H           -8.30716785941979        4.02760797037240       -1.97624387495788
H           -6.58089362939788        4.39038725054209       -1.99463265713188
N           -7.45334865698000       -0.47153076224535        0.09426806138265
H           -8.74753780472072        0.38365937244430        1.04152283121284
C           -8.42538369814502       -1.50678609735357       -0.17724517048280
H           -8.51754165686518       -1.71286208754076       -1.25162549041193
C           -8.07420096180867       -2.81030673820048        0.54751410339470
C           -9.78000007015162       -1.00700422161485        0.34732693649399
H           -7.92237869278343       -2.61554389196868        1.60725199752135
H           -8.88958811476032       -3.51804125686638        0.42718330017618
H           -7.16327226912619       -3.23241050774461        0.13017935015458
O           -9.69610383686427        0.11470926320677        1.05149880354600
O          -10.81112862500482       -1.58698245246187        0.14822430525762
