42
 energy: -62.486133504176 gnorm: 0.000480689047 xtb: 6.7.1 (edcfbbe)
N           -1.26972507620269       -0.60419990375426        0.59512554566650
H           -0.43503138151653       -1.12138872610219        0.34630787967987
H           -1.46026475302325       -0.78826334677132        1.57674268812863
H           -2.05488938253159        1.14947462359240        0.42608973799092
C           -2.40958523145409       -1.03514252285385       -0.21429532088092
H           -2.08148885224812       -1.02766243479450       -1.26254170469552
C           -2.95778919163658       -2.41671047084708        0.13255544348854
C           -3.48112677097022        0.03954947576352       -0.08545882364709
H           -3.24670842845690       -2.45148755773887        1.18071604298637
H           -3.83915536589556       -2.61385546303050       -0.46762179176654
H           -2.20887198913734       -3.18310028071534       -0.05684926606689
O           -3.01056882875215        1.25782143200905        0.24508336679066
N           -4.68079648603610       -0.26818903932122       -0.28467300837053
H           -6.88566590516334        0.46707277039041       -2.42480857141357
C           -5.78080026898331        0.67475783721161       -0.22354923835270
H           -5.91633323854710        0.97392477347223        0.82283954118687
C           -5.58235997706677        1.92765592416049       -1.08699589991770
C           -6.98914932952733       -0.15638878704830       -0.61692002243788
H           -4.69737028571695        2.44766822517027       -0.71887173666090
H           -5.35960861063316        1.62715748786712       -2.11808513875021
C           -6.77097462363471        2.89869689685637       -1.06149790795629
O           -7.41606503228563       -0.13970700270535       -1.89325792000459
H           -7.69982885645415        2.35587628119872       -1.27135968504151
C           -6.91149614666120        3.56370810874510        0.30582688308310
C           -6.58037338724475        3.96307014730700       -2.14201113377381
H           -5.99030557560910        4.07622014325060        0.57469827244816
H           -7.71760308958591        4.29344074257776        0.28651696511317
H           -7.13951201784905        2.83195727742464        1.07639182809311
H           -6.52355222381407        3.51338203486189       -3.13162700398336
H           -7.41156731171253        4.66387817867604       -2.13567523124190
H           -5.66210162244673        4.51896577423146       -1.96531890919739
N           -7.49097050938270       -0.90984091236320        0.25835113077845
H           -7.63170014098268       -1.43019612161147        1.97544860567375
C           -8.57364377646962       -1.82078656975481       -0.03703625937200
H           -9.37855407840128       -1.33050605874360       -0.59883140166275
C           -8.09129151355408       -3.04292285955052       -0.82707489993846
C           -9.13050656884208       -2.30826072774572        1.30896196815084
H           -7.25156439706198       -3.50553249574761       -0.31250367679456
H           -8.90270686924622       -3.76094362445478       -0.90736141544014
H           -7.77388147949951       -2.74043232697847       -1.82132990598901
O           -8.37139876886050       -1.97060400377658        2.34415849842831
O          -10.13930391325419       -2.95018273202053        1.40867659525489
