42
 energy: -62.486133543508 gnorm: 0.000476606307 xtb: 6.7.1 (edcfbbe)
N           -0.69785360429272       -0.05397859492713       -0.41970919590180
H            0.10092543357196       -0.39082247490858       -0.94257667591417
H           -0.49906993291494       -0.19050396058498        0.56752214171104
H           -1.81467725107276        1.46778188184181       -0.32033209453624
C           -1.91394872649827       -0.77704042529753       -0.78703999449462
H           -1.93284862377658       -0.84903552337556       -1.88231016917567
C           -2.01359720396726       -2.17876029200368       -0.18674724722770
C           -3.09709563166825        0.10477449206185       -0.38752970997600
H           -2.04944957997389       -2.11924033360335        0.89902598922706
H           -2.91374475191393       -2.67610122107903       -0.53153218089500
H           -1.15015180313649       -2.77312150657534       -0.48001986398607
O           -2.78540678036976        1.39219191256179       -0.19878025910330
N           -4.22655609575965       -0.43008001744621       -0.25573832611431
H           -5.12203653724628       -1.79149223229714       -0.99105413280373
C           -5.48543471283230        0.22598569629643        0.02557441590061
H           -5.57159813024310        0.37983634383042        1.10660377959087
C           -5.63708270287038        1.57973580656394       -0.69647020997102
C           -6.55542738589077       -0.76841937598775       -0.41148389844613
H           -4.83602173775510        2.22943465306920       -0.34252074948345
H           -5.47845863260235        1.40536910825426       -1.76462745704192
C           -6.96945183445382        2.30812889681056       -0.50562488346677
O           -6.10225769561847       -1.87174650538056       -1.01554131421894
H           -7.76512759024564        1.71019782687632       -0.95544328753294
C           -7.29098255513843        2.53334176621644        0.96915058950041
C           -6.90949556413525        3.64932706869861       -1.23627688732570
H           -6.48881679800737        3.08899530059310        1.45138392035262
H           -8.21048135989231        3.10511635318824        1.06771784919585
H           -7.42118624091341        1.58740257933135        1.48769144557870
H           -6.68432785445775        3.50584801423803       -2.29055948244157
H           -7.86431971574308        4.16302392095323       -1.15821272960690
H           -6.13998313480918        4.28622399937151       -0.80431925815291
N           -7.77644443237236       -0.52459869989182       -0.20529534118900
H           -9.15574421912306        0.58387291620943        0.31405091871148
C           -8.79950327478323       -1.45821458054239       -0.62705183828192
H           -8.62400376753851       -1.82254217012471       -1.64704624865590
C           -8.89136265048844       -2.66321012731614        0.31723986426488
C          -10.14385079227368       -0.72082148751268       -0.58592014202730
H           -9.03016290544367       -2.32204212250572        1.34142993237424
H           -9.73665540164152       -3.28214060423026        0.03005047257763
H           -7.97722581437267       -3.24832596435725        0.25845158594138
O          -10.09529774839106        0.43956555128606        0.05794145872805
O          -11.14997551841172       -1.16594173937539       -1.06513577085718
