42
 energy: -62.486133518286 gnorm: 0.000479392216 xtb: 6.7.1 (edcfbbe)
N           -1.60558455643880       -1.88825007038045        0.26914087894909
H           -0.67516078432285       -2.14030396763451       -0.04323855675523
H           -2.16825574744785       -2.73525251766427        0.26037648757589
H           -2.54928730251977       -0.89591648937191        1.65107624279379
C           -2.20396462921893       -0.90145072205522       -0.63162844066150
H           -1.47404947124532       -0.08930401259819       -0.74903543848021
C           -2.59303703670351       -1.43855407490989       -2.00572876672149
C           -3.41004295049522       -0.31847172844652        0.08507995604243
H           -3.31425315610199       -2.24492453450344       -1.89800105787343
H           -3.06246870735504       -0.64696557832805       -2.57835985503864
H           -1.71610266564136       -1.80521512064951       -2.53602548405437
O           -3.35975944412455       -0.39534283183009        1.43289464429741
N           -4.34626671784016        0.18727492975946       -0.57943610880603
H           -7.43828617600809        0.77709199656120        1.51279858981444
C           -5.49130247552480        0.76585692363354        0.07590105951990
H           -5.27523429595397        1.02589972135802        1.12533871938292
C           -5.85967122263799        2.02368480165443       -0.73803169809465
C           -6.62347856166593       -0.23152273434382        0.05364112996150
H           -4.96252199559989        2.64444659959600       -0.78714416455262
H           -6.07703233989410        1.68119750951343       -1.75057850253114
C           -7.02505833481980        2.87133508025534       -0.21825012935955
O           -7.64827648183132        0.01900818765388        0.95380581503211
H           -7.91939534368668        2.24682825952743       -0.11677252674822
C           -6.70355890313415        3.52193538576796        1.12780034930729
C           -7.34629322007153        3.95798222995366       -1.24427970210055
H           -5.85117350849089        4.18990124750202        1.02321467787818
H           -7.55229379791452        4.10558632413669        1.47806326176896
H           -6.45943636317121        2.78982251527706        1.89587494588056
H           -7.62554011414128        3.51399410151573       -2.19632263072484
H           -8.17227560896041        4.57535270421032       -0.89863160629568
H           -6.48146296975209        4.59829523240082       -1.40341157818672
N           -6.59192799206033       -1.20961771792841       -0.72029260733153
H           -8.98903504537761       -0.43337355385267       -0.17197480048159
C           -7.56776266783811       -2.25952685296132       -0.84642094269629
H           -7.11363361661993       -2.99577137826966       -1.51993756408527
C           -7.93624754392930       -2.94927414106978        0.47523792868325
C           -8.86306350644253       -1.78923395254402       -1.52644429954809
H           -8.45898053467581       -2.27212589304415        1.14730672411975
H           -8.57433629858425       -3.80533040805521        0.26978788336904
H           -7.02972220601786       -3.29357503326181        0.96836291591713
O           -9.47373048480804       -0.75055124705943       -0.95728905114971
O           -9.31722648330829       -2.33766519022836       -2.48953158591179
