42
 energy: -62.486133518662 gnorm: 0.000479363377 xtb: 6.7.1 (edcfbbe)
N           -1.18658947038153       -0.61772673395493        0.32396043159622
H           -0.40808355083522       -1.20775557462343        0.05637118477993
H           -1.23568338174124       -0.61991879945959        1.33935534194953
H           -1.92936583549908        1.10723830445439       -0.05184815394681
C           -2.44144169124176       -1.12572500505729       -0.22941677332188
H           -2.26342568672750       -1.34156744620943       -1.29106381771584
C           -2.98377092241687       -2.37752370920970        0.45475232372744
C           -3.45135733434437        0.01675011185238       -0.18138471875004
H           -3.12450459015036       -2.19068607751404        1.51706436152680
H           -3.94646037073253       -2.63129165443889        0.02519839963405
H           -2.29611833353232       -3.21119864086817        0.32760141362925
O           -2.89600262747854        1.24336428538497       -0.13060501652789
N           -4.67297731327576       -0.26308574175242       -0.19630362114184
H           -6.77885673840415        0.46902461748335       -2.42913808334190
C           -5.76701344582520        0.68378634295019       -0.18680835447976
H           -5.94131439964331        0.95946666309317        0.86037017402742
C           -5.56711468621800        1.95546538527174       -1.02200177834891
C           -6.95806153415782       -0.15235019154253       -0.62533325443548
H           -4.71160628545653        2.49516623491401       -0.61536832951493
H           -5.29808945377269        1.67941643893835       -2.04880981398726
C           -6.78428555006090        2.89135462486649       -1.02668002078253
O           -7.32340660734492       -0.14591918853871       -1.92174163250811
H           -7.68815657233288        2.32692728877934       -1.28344982168416
C           -6.99922630178016        3.52559143087925        0.34573994691954
C           -6.58206420283777        3.98138343524148       -2.07896941398488
H           -6.10630058038867        4.06189150226010        0.65989847115917
H           -7.82668442862519        4.23022868126664        0.30726712950003
H           -7.23429328754515        2.77272853681606        1.09354508831279
H           -6.46808800125975        3.55228001367899       -3.07282748358033
H           -7.43493614122786        4.65543403221696       -2.09691511531062
H           -5.69054280689833        4.56242919755551       -1.85295800161235
N           -7.49952335624325       -0.89989267623057        0.23037488017636
H           -7.72319793012993       -1.40785903384292        1.94576523713825
C           -8.57147472488316       -1.80889827595520       -0.10667750632850
H           -9.33940128040603       -1.32580772756338       -0.72357911295971
C           -8.05474976055123       -3.05097391288066       -0.84183514990638
C           -9.20547782273119       -2.26465111796831        1.21609944073587
H           -7.26102301805290       -3.51861911042562       -0.26288693172923
H           -8.87000721536837       -3.75780631585946       -0.96848511621566
H           -7.66355477580034       -2.76913447326269       -1.81574352440094
O           -8.49019281437346       -1.93015968171486        2.28293014104466
O          -10.23176642327273       -2.88340187217087        1.27347169960947
