42
 energy: -62.486133087449 gnorm: 0.000459737431 xtb: 6.7.1 (edcfbbe)
N           -1.98773501277869       -1.26961494361974        1.79482486529370
H           -1.06206003552477       -1.67661794830701        1.73537528903460
H           -2.59281995175546       -1.95752088983402        2.23640220413357
H           -2.90192948229061        0.34417378099624        2.31893671193926
C           -2.50185412016764       -0.95524392931120        0.46137708844102
H           -1.72292118353855       -0.37959884438880       -0.05711334352674
C           -2.87575084363933       -2.17061413062400       -0.38342319917185
C           -3.67962393650552       -0.01154268658640        0.64947127362331
H           -3.56366530253357       -2.81280615739379        0.16087624410267
H           -3.36147222814250       -1.83653347232080       -1.29325924463455
H           -1.98584691565932       -2.74322576207002       -0.63674903019827
O           -3.66286157500376        0.68225252853051        1.80500153916328
N           -4.55450748551353        0.08888079667629       -0.24627699842386
H           -7.80005280702703        1.82346798822457        0.76405207298294
C           -5.65674192627888        1.01190228306241       -0.10697601715707
H           -5.49230765238919        1.73052492414369        0.71130546107931
C           -5.77511854723910        1.74308183627987       -1.45975250350253
C           -6.90261386517336        0.21489508541126        0.19774783559275
H           -4.80666443986853        2.20843282720388       -1.65682119247747
H           -5.92778686102120        0.97221564312876       -2.21689051966450
C           -6.87243024344039        2.80514185095432       -1.57998033054286
O           -7.98792627293760        0.88352273603273        0.65219740261619
H           -7.84562675106923        2.35206788853265       -1.36144861584613
C           -6.63498672401627        3.98421784598782       -0.63602320036819
C           -6.91831952649088        3.31111944064304       -3.02205806536595
H           -5.68796620799265        4.46477750479239       -0.87260851498813
H           -7.42746693196325        4.72150195622070       -0.74595105241161
H           -6.60183799636709        3.68052148527205        0.40886346950077
H           -7.12288247777887        2.49405156644357       -3.70940866475235
H           -7.69831350163880        4.06016022192417       -3.13776883837589
H           -5.96691494559108        3.76099697035652       -3.29716639203203
N           -6.87082738989681       -1.03421620688186        0.07515298690960
H           -5.84967693380681       -2.47055959758694       -0.10580962704065
C           -7.97278273516775       -1.90365069673926        0.39551496163422
H           -8.48791210452867       -1.60248161727747        1.31682087844444
C           -8.99324715849411       -1.97029655991425       -0.74565404739588
C           -7.36463116902860       -3.30260013289566        0.59409393207786
H           -8.49050872706195       -2.22008661425804       -1.67774161277064
H           -9.73282665153718       -2.73416192499140       -0.52248878206084
H           -9.48807295080612       -1.00845825620551       -0.85586721427456
O           -6.09935943640009       -3.38084003553749        0.20080541187862
O           -7.97734025450393       -4.22926243401358        1.04735228861225
