42
 energy: -62.486133512218 gnorm: 0.000479997620 xtb: 6.7.1 (edcfbbe)
N           -2.19611431520393       -1.53410841600005        1.83336724442181
H           -1.73067524320255       -0.80588282013406        2.36365541008991
H           -1.55724291160912       -2.31395938216579        1.73564999714768
H           -4.04449894092299       -1.31968334635415        2.30591901807174
C           -2.62320249921267       -1.04102524268150        0.52522049230398
H           -1.92213920023155       -0.32753803330208        0.07068410005323
C           -2.82468243828719       -2.21595857531875       -0.43247808275172
C           -3.95386701282208       -0.32873569392866        0.72258436617696
H           -3.45667177113032       -2.97295455055157        0.02541239828632
H           -3.29258823208364       -1.86204133200072       -1.34590531645827
H           -1.86503433195824       -2.66512745508565       -0.68115575151471
O           -4.61519578816177       -0.67271192270964        1.83797477787962
N           -4.31493071959531        0.51789418436754       -0.13417683590563
H           -7.78218147678435        1.90212371772087        0.68271969078472
C           -5.58130042481565        1.20817530668549       -0.08238873420594
H           -5.53264157323132        1.97212463541097        0.70940510223431
C           -5.72373283916662        1.88487288542306       -1.46313144056308
C           -6.77590274881136        0.32760622099133        0.20581421099540
H           -4.77928885671089        2.39799953739355       -1.65064350029817
H           -5.80903063578151        1.08282662433298       -2.19838995167955
C           -6.88056758781801        2.87053315155436       -1.65257378011543
O           -7.91578781617549        0.95167634604965        0.58675589013676
H           -7.83150081307546        2.36613800098340       -1.44848768123435
C           -6.74886138082187        4.09440589771928       -0.74559531308217
C           -6.91026148122926        3.32404767205569       -3.11248320812538
H           -5.82703817409936        4.62628302662507       -0.97087302904924
H           -7.58279472757300        4.77406706902416       -0.90676221308769
H           -6.73200216942699        3.83082132130469        0.31056177800486
H           -7.04229062405797        2.47314342365073       -3.77620780112602
H           -7.73017097438152        4.01888065337277       -3.27904448831250
H           -5.97924299520940        3.82193268042131       -3.37410730960945
N           -6.69250113604730       -0.92398690001990        0.12588192629839
H           -5.64351186485073       -2.34000004013102        0.24783093388129
C           -7.80816976653604       -1.79027011353543        0.42292320772965
H           -8.36338524825571       -1.44978392809866        1.30681179091659
C           -8.77619837544005       -1.89625131481509       -0.75915416374871
C           -7.22730472599729       -3.18164738488844        0.71806329702235
H           -8.23175981966448       -2.16931142471090       -1.66093517890850
H           -9.51802063489590       -2.66062896599029       -0.54528538143529
H           -9.27401485308418       -0.94314880998547       -0.91963704765619
O           -5.91549755679783       -3.25121293771409        0.52379115644051
O           -7.89438657590246       -4.11160954248947        1.07732433133895
