42
 energy: -62.486133520014 gnorm: 0.000479202706 xtb: 6.7.1 (edcfbbe)
N           -1.59216341901032       -1.54402764649946        1.12993945973885
H           -0.59968108059543       -1.73487082277002        1.06931361747732
H           -2.07043904506585       -2.43433550673343        1.23713488712342
H           -2.82067552527934       -0.39818977661584        2.06329416847077
C           -2.07235228230840       -0.86240185213955       -0.07036093782532
H           -1.36362226412922       -0.05425167702085       -0.29288996436188
C           -2.21332894539414       -1.75914052764464       -1.29929124008180
C           -3.39411096414283       -0.19768074981818        0.29157838001734
H           -2.93177701625976       -2.55295077310405       -1.10427241931021
H           -2.56689797721418       -1.17142075341370       -2.13964834614575
H           -1.25396908522473       -2.20503030859697       -1.55471248846742
O           -3.58621666632710        0.00151260765889        1.60248856711817
N           -4.18798160438238        0.14419737086545       -0.62328208437181
H           -5.49912356503791       -0.60532743074633       -2.19543996179972
C           -5.46110041168152        0.76756623115273       -0.31047767811975
H           -5.54681776078060        1.03092757132713        0.74822060482908
C           -5.63443345774326        2.01197139320875       -1.19334510366342
C           -6.50842575165584       -0.26844260970728       -0.64199010824747
H           -4.87423289484612        2.74061427363178       -0.90433855546733
H           -5.43900216444101        1.72918239842702       -2.23130118550732
C           -7.02449222630203        2.64945131752081       -1.09535550671664
O           -6.34884167665215       -0.88971629001421       -1.82365608373274
H           -7.77562524387271        1.89080520629938       -1.34144046691880
C           -7.30894251437487        3.17141059495839        0.31047055953748
C           -7.13425649068153        3.78663142418877       -2.10985920286727
H           -6.54123253857841        3.88024241779287        0.61420695581283
H           -8.27125286941761        3.67683979962292        0.33383893865206
H           -7.33881545146880        2.35797795179409        1.02953960417236
H           -6.96208558161757        3.42360512462592       -3.12074730577362
H           -8.12461357921647        4.23343276089057       -2.07207154821915
H           -6.40060214717398        4.56022608339443       -1.89253756666610
N           -7.42332873502718       -0.52972319927239        0.18215413530163
H           -8.44028731989573       -0.01199193878068        1.58711110732537
C           -8.43638040878783       -1.52427694889937       -0.09794635339662
H           -8.78954631546051       -1.46825308576395       -1.13544595230978
C           -7.92163075560099       -2.94188632747024        0.17279437622622
C           -9.61943910800914       -1.24609229084437        0.84161988059795
H           -7.51943351255276       -3.00288697228279        1.18216850443942
H           -8.74218845275825       -3.64661045004429        0.07221587114803
H           -7.13854735971339       -3.19318535808627       -0.53838350153817
O           -9.35874385392693       -0.32604049740896        1.76189069430568
O          -10.66955323665806       -1.81988655751386        0.75774824572387
