42
 energy: -62.486133064422 gnorm: 0.000566086251 xtb: 6.7.1 (edcfbbe)
N           -0.89474262516433       -0.51628539694939       -0.02529104245711
H           -0.05699481140766       -0.78780809162896       -0.52564188354882
H           -0.92968334662249       -1.06534513393899        0.82946647069827
H           -1.85001038244391        1.08321754358991        0.52264147100538
C           -2.08945707014801       -0.77687344299492       -0.82884984682450
H           -1.90187685930353       -0.36928501864691       -1.83055472101350
C           -2.47562342821442       -2.24831560190461       -0.95066428117557
C           -3.22148695525252        0.04680661777566       -0.23577679289309
H           -2.61614250108100       -2.68179337763625        0.03748324527597
H           -3.41139693648901       -2.32487297083749       -1.49332257009477
H           -1.70152418301046       -2.80485058499159       -1.47510137898319
O           -2.82576258669746        1.12200733802773        0.47722743880607
N           -4.41377047534097       -0.28974190093754       -0.44064107478457
H           -6.44561584478030       -0.32148383231555        2.13317555982947
C           -5.50381450702253        0.51930276585004        0.05723094432403
H           -5.24742664955775        0.96363346086714        1.03278723915172
C           -5.80969688895288        1.63922626277705       -0.94938277703953
C           -6.69986668884002       -0.39161514507951        0.20059181020259
H           -4.91052768806747        2.24857377723237       -1.05985899917682
H           -6.02381435577225        1.15144653635719       -1.90039595910085
C           -6.99166702096649        2.53062261780051       -0.55747083281319
O           -7.07084033839318       -0.69615163824853        1.50085788315610
H           -7.86481423207886        1.89509487586853       -0.37506128565891
C           -6.70232724542030        3.34845116007416        0.69994849298908
C           -7.31941609194511        3.46555724401675       -1.72003231776187
H           -5.79319662820995        3.93237760362933        0.57103852055239
H           -7.52436398611458        4.03207443702973        0.89925209788299
H           -6.58085826076745        2.71277491593873        1.57383101036357
H           -7.55779385833894        2.89296568221319       -2.61249319093407
H           -8.17465198685505        4.09117946685865       -1.47617663008735
H           -6.47137738942910        4.11139691185664       -1.93865218717690
N           -7.27225848586047       -0.83046683156613       -0.81722464551551
H           -8.85956089854924       -0.60561438395572        1.20349025469997
C           -8.38822784857739       -1.73638437020906       -0.87570088643731
H           -8.49256754906600       -1.99906831579371       -1.93477284980719
C           -8.21193212946394       -3.02178221950086       -0.05535170556103
C           -9.70712287581298       -1.06666519627054       -0.45980491489113
H           -8.17141194543452       -2.81259710000942        1.01138320715468
H           -9.04368755185648       -3.69363292943643       -0.25252948269181
H           -7.28447181481805       -3.50834801715904       -0.34832503589625
O           -9.71665730356378       -0.50387183070436        0.74901656351599
O          -10.67775103131859       -1.06588168950787       -1.16140984581539
