42
 energy: -62.486133507206 gnorm: 0.000480904643 xtb: 6.7.1 (edcfbbe)
N           -2.19709232598048       -0.20720028580487       -1.52052655746944
H           -2.25149195801885        0.80011618023849       -1.63271022120406
H           -2.06252788244080       -0.61498733564986       -2.43913463390814
H           -1.57844395640511       -0.64966219453984        0.38589324189858
C           -3.42056391801314       -0.73040071969543       -0.90698567245411
H           -4.34416854652438       -0.40696451703192       -1.40207973787737
C           -3.35578657967455       -2.25921230815575       -0.92608267362233
C           -3.40125981552594       -0.26709839300929        0.54922117769467
H           -2.39471804036227       -2.60076090135654       -0.54713971461025
H           -4.14720238874834       -2.66161022137127       -0.30428164996294
H           -3.48306882123752       -2.62520591966654       -1.94220118287820
O           -2.19709264793322       -0.43976370604112        1.11042980302414
N           -4.29289993966831        0.23218711475834        1.28414187028611
H           -8.00940310132770        0.73916002927234        1.15295560174326
C           -5.61660231830790        0.66619519954875        0.95994477632695
H           -6.02799993567345        0.98971129775198        1.92888981451028
C           -5.53436571303389        1.89968311052872        0.02164108164549
C           -6.57939663821506       -0.35462975240583        0.39916673326747
H           -4.71994817605944        2.51948509292710        0.40371826729961
H           -5.24678291774854        1.54749807373350       -0.97081828033939
C           -6.79116786166157        2.76798761554090       -0.11289032929475
O           -7.91390560199524       -0.04812924007485        0.60291555820232
H           -7.62540086677213        2.15832675945335       -0.47758299407621
C           -7.18068757751956        3.43226663441703        1.20741448137441
C           -6.52984033261542        3.84809885211602       -1.16378959675867
H           -6.36936869071400        4.06642210112197        1.55745505715431
H           -8.06347946132424        4.05250937726733        1.06830171640817
H           -7.39936705263895        2.71042797856559        1.99233314957771
H           -6.29507601402724        3.40048565185284       -2.12658294775542
H           -7.40759152004078        4.47800047618371       -1.28634032160473
H           -5.69506417585710        4.47716174348773       -0.86261513252623
N           -6.18993496671953       -1.39363695091269       -0.17460550801497
H           -8.50217221263624       -0.56017729313755       -1.05734563890223
C           -7.01808210614745       -2.42619333157289       -0.74911714317842
H           -6.33140902685030       -3.24024738184246       -1.00795555314508
C           -8.11637179757152       -2.97623675575794        0.16859539453315
C           -7.63335370679223       -1.94068440185613       -2.07064706590056
H           -8.88000561501038       -2.23229206346045        0.38357330964007
H           -8.58460719610662       -3.83391738402929       -0.30813221976111
H           -7.67117578261653       -3.29432750770914        1.10875771361304
O           -8.43539310981369       -0.88008485078316       -1.97664478401107
O           -7.41180631322620       -2.47364086170013       -3.12000420550620
