42
 energy: -62.486133519878 gnorm: 0.000478961481 xtb: 6.7.1 (edcfbbe)
N           -1.80605306214731       -1.80902055838020        1.13154892966370
H           -0.82181551754710       -2.04738026215782        1.13392898674951
H           -2.33105188822781       -2.67523788368545        1.04589777646729
H           -3.09307394149375       -0.75516586929508        2.11343356169969
C           -2.12972983806601       -0.91940446913415        0.01842347419087
H           -1.38027879988716       -0.11733118493537        0.01353627696468
C           -2.15249494070928       -1.59306940298012       -1.35281686841214
C           -3.46653113105900       -0.26773693818652        0.34272379868146
H           -2.89951015411266       -2.38438255202616       -1.36959790340456
H           -2.40584138280000       -0.86082802557484       -2.11206554738751
H           -1.17851331378243       -2.02172045072026       -1.58049900806628
O           -3.79523032948904       -0.26388019139014        1.64135139933818
N           -4.15290252324024        0.23981971044062       -0.58287243424336
H           -5.47594223223676       -0.54123000235933       -2.18526592404568
C           -5.44279462763930        0.84442717783572       -0.29621058599169
H           -5.54283617163252        1.12511624472587        0.75691504243496
C           -5.62283878498103        2.06634332617341       -1.20723469446222
C           -6.46830794705438       -0.21814516378253       -0.61088462153043
H           -4.88911937526687        2.81873392407648       -0.91194538235404
H           -5.38931586574161        1.76879541526175       -2.23300107036831
C           -7.02990207269471        2.67162442766116       -1.16431612040683
O           -6.30331389580324       -0.85177014078454       -1.78666935316200
H           -7.75477851455295        1.89127054795559       -1.42151163407301
C           -7.37297420834578        3.20914306728598        0.22232186831602
C           -7.13328778474550        3.78956773046064       -2.20073374127319
H           -6.64001216803063        3.95075701353182        0.53340338009807
H           -8.35280432025323        3.68022518383169        0.20835198299033
H           -7.39499413399233        2.40846674388415        0.95580002519563
H           -6.91996730410576        3.41485916632315       -3.19942245096818
H           -8.13418557734398        4.21391028535559       -2.20215682777074
H           -6.42480451651300        4.58327951517595       -1.97285746185791
N           -7.37454818606883       -0.48961668674962        0.21908293884212
H           -8.37220933169339       -0.01320226024124        1.65392031999707
C           -8.35989431925731       -1.51687290034364       -0.03948962976277
H           -8.73594437115608       -1.47318860767383       -1.06946970964501
C           -7.79606108463759       -2.91788278356377        0.22135134352752
C           -9.53100903114903       -1.27653442169086        0.92510386692500
H           -7.36347516208392       -2.96220064491105        1.21902743686538
H           -8.59844407435988       -3.64655326632580        0.14717481914128
H           -7.02689420187403       -3.15022381774313       -0.51114278965060
O           -9.27690044112934       -0.35554201274042        1.84594016421361
O          -10.56560473198150       -1.88024480428156        0.85986137953793
