42
 energy: -62.486133521822 gnorm: 0.000478956814 xtb: 6.7.1 (edcfbbe)
N           -1.74792103982816       -1.96672610681161        0.55775307063600
H           -1.32200033872892       -1.49267942875461        1.34777565615858
H           -1.03973275292047       -2.54969905792308        0.12719233418350
H           -3.61870666808994       -2.12835644871585        1.07272479997482
C           -2.27300358434663       -0.99902858814989       -0.40538518722823
H           -1.62360110155307       -0.12711321943358       -0.56231230455600
C           -2.52221499373556       -1.68712983638287       -1.74827886350259
C           -3.61082146597458       -0.51355907013066        0.11996872001744
H           -3.16549004276050       -2.55377100532333       -1.60987842772742
H           -3.01004927597273       -0.99233857265751       -2.42487307362088
H           -1.58201299645003       -2.01318075587449       -2.18824621466689
O           -4.23386651386519       -1.37708658873035        0.94802797947330
N           -4.04549140058420        0.60513367522172       -0.24459836339207
H           -6.27323014730202        0.17372597257652        2.22330380774225
C           -5.35860121803099        1.09073129487751        0.12412997413617
H           -5.25282686770704        1.63380509492412        1.07517412684108
C           -5.80541447502493        2.06173605252675       -0.97596730004353
C           -6.37669822080475       -0.01626069094297        0.28849377565020
H           -5.00990367481525        2.79467934354227       -1.11397967662167
H           -5.89711698863168        1.47629002422361       -1.89042285969993
C           -7.13320902700395        2.77040908959309       -0.69393301875599
O           -6.84033427531728       -0.24924253723964        1.56814590427835
H           -7.89684961872703        2.01428436455419       -0.48097655080580
C           -7.03634449008467        3.72233253254840        0.49708897557393
C           -7.56357139659763        3.54243957777740       -1.93961474962248
H           -6.23559667671588        4.44258583384356        0.34184423861198
H           -7.96962174397139        4.26786934584915        0.61644992957058
H           -6.84481867289429        3.18827677898787        1.42487179471238
H           -7.67530472580498        2.86825011650003       -2.78461575623636
H           -8.51544682074380        4.04019475825764       -1.77090569153239
H           -6.82068377038803        4.29566282072424       -2.19366769532540
N           -6.76164556602723       -0.63477291575607       -0.72775877670211
H           -8.57263558912903       -0.49178400777053        1.09818597693142
C           -7.69845264450313       -1.72580832656357       -0.78174079059681
H           -7.64194566065548       -2.10445588609556       -1.80924022621610
C           -7.40291190823427       -2.87353189241990        0.19376638165847
C           -9.14679728224566       -1.26156073745574       -0.56710870688363
H           -7.51750766117028       -2.55740025285339        1.22806372249911
H           -8.08191501777900       -3.69954147844329       -0.00270777995026
H           -6.37925687417155       -3.21086852865313        0.04988269707757
O           -9.38074072865924       -0.59122573110103        0.56113511546183
O          -10.02189733838287       -1.50331106263295       -1.34883171544155
