42
 energy: -62.486133504953 gnorm: 0.000481232808 xtb: 6.7.1 (edcfbbe)
N           -0.89226039372856       -0.35984727324953       -0.60600559203157
H           -0.16074878649479       -0.82583890448876       -1.12918015109084
H           -0.68266402998546       -0.47671863350395        0.38161156451675
H           -1.87204003801517        1.31419391705812       -0.60599158217766
C           -2.19994112306330       -0.94268272273321       -0.90644516921020
H           -2.28628491687283       -0.99479465124234       -1.99991116509905
C           -2.43701648240433       -2.33116067894923       -0.31978782649538
C           -3.25641741280497        0.05352716908979       -0.44734102736166
H           -2.31492804842385       -2.30812984292800        0.76141141603996
H           -3.45176366113575       -2.64142232461264       -0.54318000380332
H           -1.73539925513274       -3.04840790284678       -0.74128399927190
O           -2.82924134828845        1.33073154277239       -0.40521059388742
N           -4.40128145681750       -0.36385479434225       -0.14965653430661
H           -6.67286883860365       -0.34314814496411        2.19746114421223
C           -5.50620696442868        0.49369387982573        0.21944427865590
H           -5.31789449770785        0.90735063195464        1.22203712486987
C           -5.75680301622993        1.64296253513112       -0.77069552838216
C           -6.72568692009962       -0.40270052168754        0.24989384187680
H           -4.86153276240713        2.26179239075545       -0.82540600491164
H           -5.92767520903504        1.18171939304795       -1.74403674931403
C           -6.95849450398996        2.52172362704600       -0.40848361264767
O           -7.24514005456335       -0.68728233186394        1.50149511217700
H           -7.83174328800494        1.88141535543992       -0.24214664071994
C           -6.70256276050646        3.34651066756345        0.85186951892158
C           -7.26937188228835        3.45011401667586       -1.58071160832788
H           -5.80494248777018        3.94980378242347        0.73204615389606
H           -7.54110670476927        4.01263539608321        1.04119319701431
H           -6.57670734765612        2.71468995106766        1.72820790464395
H           -7.50288182671513        2.87185241591664       -2.47079235150101
H           -8.12282087206946        4.08329331488025       -1.35075623010324
H           -6.41460213607465        4.08798344285201       -1.79595918004430
N           -7.18685068334948       -0.84672709526545       -0.82144520055728
H           -8.99070648630042       -0.57578678976156        1.00565902448392
C           -8.30241954016142       -1.73925222671081       -0.99225937272010
H           -8.28970767797444       -2.01856793683577       -2.05217819319423
C           -8.24165002896714       -3.01293676530424       -0.13761884053383
C           -9.64785278125523       -1.04145166519612       -0.74037622451259
H           -8.32139020741358       -2.78720653002982        0.92349831039489
H           -9.05522405454603       -3.67674017507842       -0.41973486046977
H           -7.29409989855069       -3.51688999663039       -0.31364223392962
O           -9.78766125432721       -0.46556941060564        0.45414940965070
O          -10.52959961945065       -1.03090192243059       -1.55080645008208
