42
 energy: -62.486133515963 gnorm: 0.000478996648 xtb: 6.7.1 (edcfbbe)
N           -1.90024212936850       -0.30887373950256        0.57850845686803
H           -1.14416807141233       -0.81964452408679        1.02374422765272
H           -2.33876528270898        0.27261940631946        1.28548046233543
H           -3.45908186861688       -0.70842470249998       -2.26116360333490
C           -2.89142675155618       -1.24377084455529        0.06012010057884
H           -2.41996520977904       -1.77546142126854       -0.78016901510900
C           -3.39041764128025       -2.26737795510227        1.08730258354687
C           -4.05514302550306       -0.42006114713647       -0.45257650272063
H           -3.88198440850309       -1.74750122163285        1.90440123179784
H           -4.10373961886863       -2.94897240135041        0.63294560095617
H           -2.55390639804495       -2.84547550505308        1.47518730290417
O           -4.19579037389460       -0.29531833043731       -1.79428256711955
N           -4.82681941694372        0.09563584158917        0.39267624413572
H           -7.79609889511033        1.22597105806894       -1.62077959270894
C           -5.96591520106125        0.90925890155282        0.02890541523308
H           -6.26783240040392        1.39245657952641        0.96965507431574
C           -5.68088554113648        1.99705701922632       -1.02013784526827
C           -7.09630511063386       -0.03428872350639       -0.34961513114228
H           -4.62990933248064        2.27818132923472       -0.92499298977374
H           -5.79992089681333        1.58336253624433       -2.02547751985966
C           -6.54061965814484        3.26035988520438       -0.84407488506324
O           -8.00368050937999        0.35143886129736       -1.26747657231581
H           -7.56277819733306        2.98200564628177       -0.55524155187436
C           -5.97260645297329        4.14803320078985        0.26165195095963
C           -6.60406527016554        4.03993329778714       -2.15732944383518
H           -4.98291984562446        4.50563947735579       -0.01405098538113
H           -6.61538675542760        5.00989121153756        0.42561722926398
H           -5.88957994294517        3.60142270937188        1.19783818519024
H           -7.05972647269605        3.44809135297519       -2.94956816064355
H           -7.18974554317330        4.94771790813982       -2.03298505273853
H           -5.60249823615035        4.32070453581808       -2.47537814978572
N           -7.14720356147816       -1.14338582238873        0.24131557113513
H           -6.51210987566468       -2.18973340951798        1.54461661978865
C           -8.15654152564494       -2.14026772716254       -0.01633195811180
H           -9.16839176191785       -1.72007328788916        0.04945800814920
C           -7.98574110041185       -2.80417795918015       -1.38686422740252
C           -7.99667730125879       -3.21612531626784        1.07223576614454
H           -6.96687993666294       -3.17168198655040       -1.49461993296559
H           -8.67568794503850       -3.63939977995448       -1.46720051620708
H           -8.18934993350126       -2.08723528471976       -2.17785349860941
O           -6.93564047245168       -3.03164494880690        1.84603652780664
O           -8.75004341545569       -4.14291057550121        1.18940858343376
