42
 energy: -62.486133510073 gnorm: 0.000480623820 xtb: 6.7.1 (edcfbbe)
N           -1.56542936777248       -1.75354496776853        0.25651227301179
H           -1.00404036435558       -1.08230433166367        0.77068548455364
H           -0.93505818962905       -2.41346287158041       -0.18351264072649
H           -3.24100852060875       -1.79056558971590        1.26421973100079
C           -2.38635496813675       -1.07801717954847       -0.74908639641238
H           -1.86712149893569       -0.26698651620960       -1.27748330736381
C           -2.89950708609877       -2.09380968848601       -1.77028124627850
C           -3.58948365799445       -0.49326935079592       -0.03844824116996
H           -3.40037980266329       -2.91326693860758       -1.26003067669450
H           -3.61009388356748       -1.60898939202819       -2.43188415991131
H           -2.07467638943571       -2.49354951087169       -2.35668280780832
O           -3.93248008057275       -1.11644440410553        1.10458684698251
N           -4.20191964535592        0.47855967258858       -0.54790651782839
H           -7.28905067706032        0.77801875380196        1.60361849547638
C           -5.40528843048960        0.96722350105685        0.08477665526278
H           -5.20334357894963        1.22037102008278        1.13788678213852
C           -5.83718375372606        2.21541728515808       -0.70616922741990
C           -6.48853798115651       -0.08521930866032        0.04909684695837
H           -4.97709386779214        2.88630754595965       -0.73518152332130
H           -6.02743859379534        1.88188814190437       -1.72702475860710
C           -7.05793227000122        2.97440966098302       -0.17724513990374
O           -7.48752704075665        0.05462150129781        0.99700872262284
H           -7.90473647491809        2.28582118094370       -0.08133440778657
C           -6.78282836418989        3.62898822169668        1.17686484861711
C           -7.45571630594147        4.04802693375520       -1.18966096841090
H           -5.97371212104353        4.35028406984448        1.08378528791671
H           -7.66823738879137        4.15374772248358        1.52952958601991
H           -6.49749697031771        2.90437172397195        1.93779091422385
H           -7.70084902494534        3.59689630318506       -2.14766780126481
H           -8.32449036499693        4.60014230313944       -0.83858608024938
H           -6.63856506651239        4.75027390762597       -1.33886349321640
N           -6.44512426650640       -0.99778413390973       -0.80115423564720
H           -8.85471470560427       -0.41175771769633       -0.08661953151412
C           -7.36550802770183       -2.09288938707651       -0.95877624350554
H           -6.90366312992222       -2.75222269169680       -1.70321489511947
C           -7.62072627250548       -2.88900625094599        0.32880850500594
C           -8.71697657443223       -1.65539182918833       -1.54304326843719
H           -8.15382681667733       -2.29361731433584        1.06685121932472
H           -8.20779497295952       -3.77435195005331        0.09765809859148
H           -6.66808415939123       -3.19406472404021        0.75616699438579
O           -9.35946336208303       -0.70096620858302       -0.87026896261932
O           -9.18272724033936       -2.15591321335180       -2.52678561168123
