42
 energy: -62.486133511435 gnorm: 0.000479779701 xtb: 6.7.1 (edcfbbe)
N           -2.71037557740302       -1.46745654523674        1.92110995375404
H           -1.79099475673875       -1.88123680571759        2.02334135820857
H           -3.39394616074039       -2.20956909894555        2.05861358461189
H           -3.77409635381151        0.04921646583669        2.47969897713815
C           -2.87621826734401       -0.89556634132852        0.58464070815033
H           -2.02499489509536       -0.22156912883810        0.41198111538759
C           -2.94937393344221       -1.91906769879109       -0.54635168254419
C           -4.12250924679649       -0.02744068006161        0.63949681298647
H           -3.70579943918634       -2.66858899651615       -0.32356772135524
H           -3.22232933645745       -1.41744550858190       -1.46881579104046
H           -1.98837318508985       -2.41425079590636       -0.67159075253722
O           -4.40602834223286        0.46576613213137        1.85943951464505
N           -4.80640254189407        0.16784362735655       -0.39733280975995
H           -8.37157302298682        1.39670618676144       -0.84137262607181
C           -6.00832270379293        0.96407694630595       -0.34270278776945
H           -6.03835298597695        1.58664708516099        0.56614498628431
C           -6.08526559845304        1.85508013201911       -1.59800108402118
C           -7.18351530900472        0.01088884249668       -0.24799566964431
H           -5.09378180776902        1.85756117761956       -2.05311561481727
H           -6.76243646694808        1.40502336451967       -2.32914734618672
C           -6.50615395059224        3.30238643598049       -1.30667648325191
O           -8.41149122312378        0.47467961366091       -0.55633287060745
H           -7.35681951253846        3.30678758852653       -0.61098657438008
C           -5.35919053184172        4.07322643888282       -0.65677424847429
C           -6.94036217408099        3.99432423300361       -2.59759950396399
H           -4.52223273716565        4.15009854564792       -1.34720100663743
H           -5.67738273447729        5.07792364288663       -0.38795815200122
H           -5.01221360939088        3.57184863672569        0.24343060800909
H           -7.79546989568401        3.49084711850993       -3.04476078432928
H           -7.21770472857878        5.02724322807786       -2.40069208628196
H           -6.12609210978182        3.98974197626657       -3.31836150302143
N           -6.95817294743239       -1.15407250930294        0.16272407835057
H           -5.75774628547024       -2.19251638986720        0.81153617039359
C           -7.93815215766292       -2.18760488004026        0.36670270492682
H           -8.76830284576848       -1.84292611128860        0.99669244789146
C           -8.50356933550783       -2.73429799766950       -0.94704379538938
C           -7.19665024462719       -3.31910111835787        1.10592803060713
H           -7.68859869094143       -3.02062666401632       -1.60884616358531
H           -9.11659213928508       -3.60634131486762       -0.73733750807794
H           -9.10765145352674       -1.97458493885421       -1.43630537657101
O           -5.89402035487378       -3.08629572249246        1.23178363716134
O           -7.73693169547898       -4.30938403600991        1.51254052677423
