42
 energy: -62.486133506019 gnorm: 0.000480898342 xtb: 6.7.1 (edcfbbe)
N           -1.21776051062785       -0.82200178059198       -1.59911870152001
H           -0.37856601119401       -1.38792936757033       -1.62588310141123
H           -0.93050428129397        0.15277148789588       -1.63094018095275
H           -2.90203577254844       -0.74625359052288       -2.45876808860879
C           -1.98382127068182       -1.07327580090359       -0.37813450400363
H           -2.03205083893206       -2.16170458067874       -0.24108718364542
C           -1.41164827542776       -0.43299265664788        0.88341807552525
C           -3.40953971912760       -0.60675275278538       -0.64156286636898
H           -1.31564435536481        0.64266116873177        0.74674053546045
H           -2.08603580632898       -0.61317744330939        1.71397128724819
H           -0.43324069004518       -0.85043689529741        1.11261332951490
O           -3.73225132773692       -0.57241877700098       -1.96634874776409
N           -4.16252968382604       -0.34533060440883        0.32099597959198
H           -5.26544951599212       -1.52132686044722       -1.56544529152776
C           -5.51950561408449        0.14513644843845        0.27407105185082
H           -5.80000992891545        0.30992912901622        1.31818472409296
C           -5.55788755974172        1.49293691189126       -0.48652770133728
C           -6.53643919047748       -0.80626384537839       -0.32428180103092
H           -4.75309753951123        2.10962576111503       -0.07776892826354
H           -5.32756799713269        1.29614423283380       -1.53668815292602
C           -6.87467157881866        2.26723134652957       -0.40228799594543
O           -6.14582103626168       -1.73043414164552       -1.21549655878593
H           -7.68238879692697        1.62699003591154       -0.76677097631682
C           -7.19596542430055        2.69520814509994        1.02697727641044
C           -6.79272111012738        3.49587859012891       -1.30800986774121
H           -6.39686082095413        3.31713171630403        1.42602836067247
H           -8.11920509765431        3.26885189467096        1.04493576098048
H           -7.32155157378582        1.83360628917823        1.67656276915403
H           -6.59049676684526        3.20660456760084       -2.33695533477722
H           -7.73232736937238        4.04187831856503       -1.28636376793484
H           -5.99997836815205        4.16366790431449       -0.97592204242904
N           -7.74783602683301       -0.62606311619512       -0.01509976967858
H           -9.06706100899815        0.40320797286271        0.72417031785273
C           -8.80089381777398       -1.42799871137177       -0.59446498326970
H           -8.65018443993627       -1.58854506907622       -1.67021174614542
C           -8.91580029604757       -2.79266792195993        0.09447071250324
C          -10.11906332538478       -0.67089567193797       -0.38197205842896
H           -9.02905457240627       -2.65799567830926        1.16832449081057
H           -9.78345723352171       -3.31914970627703       -0.29307952627946
H           -8.02020924273710       -3.37831263130476       -0.09699715664835
O          -10.01620316107118        0.34649970093072        0.46534544211391
O          -11.14721068885017       -0.98406550433214       -0.91507109629582
