42
 energy: -62.486133518047 gnorm: 0.000479344342 xtb: 6.7.1 (edcfbbe)
N           -0.75880292687959       -0.16621345287403        0.13070936070664
H            0.14382290071331       -0.32138110855333       -0.30157589566377
H           -0.79458602545686       -0.72936683173064        0.97600738944316
H           -1.93216095797610        1.32656887318127        0.57900060584657
C           -1.84499127049905       -0.54865238918526       -0.76969034240251
H           -1.63624086613329       -0.08217753056128       -1.74207245431391
C           -2.01987615455434       -2.05343150628584       -0.96432672777711
C           -3.10776026075983        0.11276294594780       -0.23849886854835
H           -2.26631490532637       -2.53115836043299       -0.01816763434582
H           -2.82229761707280       -2.24246634212648       -1.66968819462485
H           -1.10135915220228       -2.49069522385204       -1.35084780840483
O           -2.89953911358939        1.23258347099620        0.46816426444261
N           -4.23362246491544       -0.39249545377712       -0.48396166780239
H           -5.10189469944681       -1.99445392376003       -0.49467882151922
C           -5.47323538926070        0.22247809234116       -0.04418269980957
H           -5.42306208420931        0.46742508599364        1.02522501679350
C           -5.68653938005615        1.51892273811360       -0.84734468566275
C           -6.54433267750163       -0.83775684970895       -0.24723833907998
H           -4.83771795668523        2.16535947539446       -0.61249840288467
H           -5.62858866919558        1.26169048084479       -1.90787492564869
C           -6.97562122199215        2.30514315787626       -0.59917675723384
O           -6.07345546053030       -2.08445945846399       -0.39658296803511
H           -7.80687569903201        1.75514304114730       -1.04351392144553
C           -7.25043188842789        2.51003949785939        0.88725986587290
C           -6.86942035929405        3.65657234259712       -1.30573507635553
H           -6.39962542973123        2.98830627044298        1.36886147697103
H           -8.12161865819749        3.14678315867315        1.02185122540475
H           -7.44328520254568        1.55995968097571        1.37824358983477
H           -6.65854377455089        3.52169707702798       -2.36407291467478
H           -7.80227041570024        4.20643382178703       -1.21100170654337
H           -6.07186827496349        4.25510154607680       -0.86962733375515
N           -7.76779433146168       -0.53935654192817       -0.32058056850541
H           -9.20475835353355        0.62673233955725       -0.12960374916515
C           -8.76530612676182       -1.56834893902931       -0.53085009421612
H           -8.51334160657387       -2.20158462262042       -1.39041591703957
C           -8.94888726166153       -2.46336540231714        0.70206439019197
C          -10.10313567660252       -0.86838651331777       -0.79623993820190
H           -9.16846148844010       -1.85274943068426        1.57620728202649
H           -9.77519180170828       -3.14735333926126        0.52968494601220
H           -8.04115938624559       -3.03238134406272        0.88436586331921
O          -10.11707742170248        0.40678856450719       -0.42401468894140
O          -11.05896175049031       -1.43028297487646       -1.25464716990202
