42
 energy: -62.486133509867 gnorm: 0.000480491991 xtb: 6.7.1 (edcfbbe)
N           -1.00659108271183       -1.25421449831888        0.27243974649152
H           -0.05036928423875       -1.26686591670660       -0.06084133671659
H           -1.29204548428339       -2.21993433909563        0.41278078450321
H           -2.08091207374666       -0.37265351358835        1.58549911399489
C           -1.89187325770092       -0.61288096566181       -0.70006592575724
H           -1.39531711732302        0.30425724684319       -1.04123056145115
C           -2.24666012507637       -1.47370137105415       -1.91006924261407
C           -3.14130353753225       -0.17479884940512        0.04655543408392
H           -2.71181134172962       -2.40260800491523       -1.58607509258973
H           -2.95340303661927       -0.93889435515122       -2.53501928588696
H           -1.35426589226266       -1.70679842123704       -2.48706155600904
O           -3.00401111969631       -0.10875822314488        1.39326913821207
N           -4.19645800454036        0.07914250016288       -0.58379671925845
H           -5.11098525082463       -1.30141824711277        1.51656782971675
C           -5.37279057228765        0.58830540848339        0.09613371299826
H           -5.13388505747016        0.93692320016553        1.11297568482044
C           -5.94265467578247        1.73122532184438       -0.74629445313240
C           -6.31357752183058       -0.58976501264044        0.20277937895754
H           -5.14797013733558        2.46423077072147       -0.89857621602678
H           -6.20345377259246        1.31548761468451       -1.71900621919637
C           -7.16228404602999        2.41950009059095       -0.12450792125343
O           -5.94619949171970       -1.54096867266395        1.09142866323159
H           -7.85440369737327        1.64870792995086        0.22643853183341
C           -6.76593525477050        3.30008087814225        1.05916878910881
C           -7.87108537117930        3.26186602503046       -1.18352907965340
H           -6.07268241114288        4.07560208290587        0.73932913061464
H           -7.64473843475568        3.78158269168490        1.48202188475598
H           -6.29162920596683        2.71861273938421        1.84577910367893
H           -8.20809505923986        2.64095992380376       -2.00971047441769
H           -8.73740668472383        3.76070718760199       -0.75563491696143
H           -7.19801853280217        4.02154438798296       -1.57539121227051
N           -7.33006145482642       -0.68033920031626       -0.52905575888710
H           -8.26604741579290       -0.08607430734228       -1.94503534494871
C           -8.21891673531113       -1.81721542514143       -0.49226190786511
H           -7.66886992663391       -2.76655479291414       -0.48559509879728
C           -9.14815781065099       -1.77568216080732        0.72601723900556
C           -9.08293581901144       -1.74896012649648       -1.76233829932367
H           -9.67881861858218       -0.82598940547710        0.75703555407939
H           -9.87060237162316       -2.58359852611064        0.65270610046684
H           -8.56896598320809       -1.88943663475933        1.63893795836715
O           -8.95176459508475       -0.60844184645383       -2.42707051054020
O           -9.81823399512585       -2.63420901036324       -2.10076156270411
