42
 energy: -62.486133508249 gnorm: 0.000480989377 xtb: 6.7.1 (edcfbbe)
N           -1.63465949319645       -1.24014351932448       -0.79845377207264
H           -1.36381514633895       -0.67872070460932       -1.59867068931856
H           -1.44992016393943       -2.21187313605799       -1.01728219378852
H           -1.31255286673212       -0.12196094276288        0.65141843230468
C           -3.04375092046556       -1.03738008444992       -0.46036654967758
H           -3.67254210794962       -0.94529264302498       -1.35440177706081
C           -3.54230876502182       -2.21045606944845        0.38599115339753
C           -3.13546776197341        0.22231671529317        0.42778045845286
H           -2.89410998458309       -2.34203674895392        1.24974011114093
H           -4.55187347599814       -2.01615076294810        0.73787932203054
H           -3.54542663069999       -3.13005256929936       -0.19687569739245
O           -1.96637259426705        0.52210268865716        1.00292463817776
N           -4.13441457051953        0.88129476166217        0.80463679424019
H           -5.32504956128820        0.19342143659235       -1.95916200553782
C           -5.47390520069316        1.05509197105840        0.34107450222554
H           -6.03839930463259        1.30470208986937        1.24710246032462
C           -5.49226500498128        2.27862550782347       -0.59791469745438
C           -6.20768532778790       -0.11427469069781       -0.28731548176127
H           -5.05229220879551        3.10808090786133       -0.04290191464166
H           -4.83341365755791        2.09131139402152       -1.45429401546896
C           -6.88665918870458        2.67625230590210       -1.09775647272252
O           -5.89354598833946       -0.47570233724349       -1.55584792194861
H           -7.32766992937827        1.83963974740291       -1.65263392768854
C           -7.82104713061323        3.02677496949871        0.05724969640049
C           -6.75663932763770        3.86646186513089       -2.04791146783121
H           -7.36819429157017        3.78136451524390        0.69602031967438
H           -8.75787358102608        3.42080524186719       -0.32925097082299
H           -8.04786894398040        2.14937622171412        0.65644442028815
H           -6.10362316941830        3.63054061429979       -2.88593946923548
H           -7.73047744630829        4.14356876107955       -2.44355169253741
H           -6.34319158897007        4.72406660262103       -1.52216140009427
N           -7.17478553185104       -0.62593690244044        0.33663620649035
H           -8.35931583248805       -0.61267273268678        1.74201011510098
C           -7.98937371499718       -1.66870329929083       -0.24509890147228
H           -8.26040631021847       -1.43234148493575       -1.28264357211356
C           -7.29488328920573       -3.03466396700963       -0.22241234022474
C           -9.27479491811997       -1.76504140682538        0.59017782627008
H           -6.96400454228861       -3.26870820616209        0.78768236820498
H           -7.99722352022734       -3.79554674375800       -0.55094240302983
H           -6.43562167313708       -3.02587729424601       -0.88820651379974
O           -9.22892383091833       -1.07203525626959        1.72132816427690
O          -10.21984283039375       -2.42223624364302        0.25483917601849
