42
 energy: -62.486133518242 gnorm: 0.000479485983 xtb: 6.7.1 (edcfbbe)
N           -1.29499286934341       -0.78215956399070        0.17171383974006
H           -0.66403370162571       -1.53843181410582       -0.06345578939028
H           -1.02078672420533       -0.42787759028521        1.08420795289380
H           -2.01718400319022        0.77340235373923       -0.60652705893655
C           -2.68070269522373       -1.25249103154752        0.22062064915759
H           -2.84078700806569       -1.89630400208256       -0.65283039022752
C           -3.04019137431527       -2.02701883697642        1.48562108820691
C           -3.58392605711672       -0.03544370843859        0.02788860082184
H           -2.86718760299170       -1.40867414462048        2.36447609069990
H           -4.08864696659372       -2.30109150684620        1.45863230557359
H           -2.43584841170999       -2.92858491329242        1.56206855251147
O           -2.95881612357459        1.03169400625134       -0.50812561222073
N           -4.78571896469424       -0.13364569234956        0.36647389083657
H           -8.08225187085207        1.67064389643049        0.79064588075584
C           -5.82304414283660        0.85570163522744        0.22506909589882
H           -5.78708709714504        1.52137395800591        1.09949417648637
C           -5.72210013520068        1.68643352500741       -1.07479921241148
C           -7.12721824898889        0.08507276303735        0.24871822837340
H           -4.74402260237277        2.16731222581882       -1.08632076520959
H           -5.75506424013891        0.97745796056039       -1.90576117113711
C           -6.79134507543924        2.76302589438503       -1.29150058678289
O           -8.26343525829112        0.74949978904986        0.56785066055216
H           -7.78716627244898        2.30692592807253       -1.27796901375467
C           -6.71751373932925        3.86427749497027       -0.23328131708331
C           -6.59241902027076        3.38089483721915       -2.67609520068675
H           -5.74246838687710        4.34600857926144       -0.26680506347303
H           -7.47740607850561        4.61984586548724       -0.42171367144562
H           -6.86682999580932        3.48512465722354        0.77667409465379
H           -6.67386025625470        2.62217252057660       -3.45065560885146
H           -7.34397976938765        4.14430314223886       -2.86426949196819
H           -5.60931094554578        3.84092029465596       -2.74841266174910
N           -7.09925841829100       -1.14814221776941        0.02087527604743
H           -6.06275555051232       -2.56927996742441        0.02186915643644
C           -8.24919282194876       -2.01151297667665        0.05973856110911
H           -8.89660364667638       -1.79969854533530        0.92101180359453
C           -9.08384181118953       -1.91707757158045       -1.22101719656197
C           -7.69910222621906       -3.44406576186679        0.19554726598187
H           -8.44609761198481       -2.06590727284884       -2.08991944713356
H           -9.85039750087223       -2.68668738593798       -1.20600624012147
H           -9.55333012777410       -0.93874014084811       -1.28801809313410
O           -6.37646269559320       -3.50598605257026        0.12635338456924
O           -8.40380319976062       -4.40529631507504        0.33686790212383
