42
 energy: -62.486133523202 gnorm: 0.000478209898 xtb: 6.7.1 (edcfbbe)
N           -0.88190827001583       -0.38823610641000       -0.51451154084517
H           -0.13233511919022       -0.79115324487508       -1.06403442418017
H           -0.73204816852395       -0.66371422892953        0.45222225100677
H           -1.83924214734876        1.30070777452319       -0.29762797003596
C           -2.18225183833002       -0.87913014072582       -0.97146878805981
H           -2.21005428547959       -0.75015429389931       -2.06149746087685
C           -2.48048983423592       -2.33662190165245       -0.63267351236268
C           -3.24297941641441        0.05364511290121       -0.40677246858454
H           -2.40973866637144       -2.49380020477015        0.44156350534106
H           -3.49215698676256       -2.56999891049375       -0.94598026396822
H           -1.77856058315624       -2.99831010246672       -1.13602280609053
O           -2.80431750852806        1.30308557579277       -0.14383628888144
N           -4.40672267872259       -0.37726282156387       -0.22697609990195
H           -7.04892546661722        0.09322469468804        2.08695247002289
C           -5.49601842663581        0.44886263580217        0.23147001279515
H           -5.28452034439673        0.80546671970581        1.25172171845943
C           -5.74790043707307        1.65590662060475       -0.69385475990621
C           -6.73694864009817       -0.41434081025492        0.22692837822571
H           -4.84728797248478        2.26984886226858       -0.71536169966311
H           -5.91739693224537        1.24720570037701       -1.69127479827408
C           -6.94450033881159        2.52280872572252       -0.28821035944095
O           -7.48272004215079       -0.42164524578796        1.39616848117125
H           -7.82018471314395        1.88148874831532       -0.13803939304711
C           -6.67226502170047        3.30343135267219        0.99678768078452
C           -7.26797574289784        3.49431380995571       -1.42173484626484
H           -5.80864662590917        3.95205438521225        0.86527318362443
H           -7.53044156446198        3.92171114395925        1.25054665580123
H           -6.47503323006316        2.64433094686623        1.83969742677836
H           -7.51687230020244        2.95019506983934       -2.32922397077742
H           -8.11564617891250        4.12145751704345       -1.15580797881060
H           -6.41397585638227        4.13674512095570       -1.62610010599491
N           -7.03953974394895       -1.04554802012191       -0.80542522993895
H           -9.10948216793902       -0.38515020521093        0.59910558743996
C           -8.16469144661459       -1.92170893320583       -0.99905185986650
H           -7.99329622269017       -2.40313239072850       -1.96884922139074
C           -8.32066426378361       -3.00467656222792        0.07747922708080
C           -9.48764811640188       -1.15030723821241       -1.12257424391231
H           -8.56054387050472       -2.57392724955634        1.04721991654179
H           -9.11353538656925       -3.69066518005124       -0.21030100395531
H           -7.38771305435800       -3.55673678060855        0.16592421811724
O           -9.79357912879552       -0.35572703509404       -0.09623353691344
O          -10.21543252073275       -1.26656861733253       -2.06668094552569
