42
 energy: -62.486133514062 gnorm: 0.000479984434 xtb: 6.7.1 (edcfbbe)
N           -2.53431242627837       -0.66769251601367       -2.23179938611662
H           -2.64793619339701        0.18556183031227       -2.76984050173352
H           -2.63399290170632       -1.45104850588577       -2.86761467546229
H           -1.39652719917628       -0.18439037758871       -0.74979406138216
C           -3.53529397486004       -0.74571958648017       -1.16651643684092
H           -4.54833794875582       -0.49105199954511       -1.49897029328668
C           -3.52775632635392       -2.16451169362781       -0.59099568390867
C           -3.08354417218401        0.21837932835629       -0.06583589485515
H           -2.50880397155645       -2.46020132984819       -0.34941417333290
H           -4.12597960872551       -2.21449883220263        0.31394288186913
H           -3.93749744305580       -2.86702989805282       -1.31399844199704
O           -1.75339244422667        0.29345640008531        0.02868451895052
N           -3.75043367390366        0.89284542641373        0.76315605256120
H           -5.53192488288229       -0.31610595549209        2.79968768244374
C           -5.17452594787423        1.07951672550293        0.86981446850346
H           -5.30507023977258        1.59316825578467        1.83412850566441
C           -5.67784505148820        2.00930780316800       -0.24760427342189
C           -5.95892769934482       -0.21331943309141        0.92860453381112
H           -5.04319526282809        2.89735451708831       -0.24542888613901
H           -5.54104997195144        1.50150922670907       -1.20288325982418
C           -7.14634710320887        2.42425773415128       -0.10740347539312
O           -6.03935154587325       -0.80678567210355        2.14003282344185
H           -7.75238849939595        1.52147493532344        0.02114479065859
C           -7.36870571488543        3.34024913326453        1.09386657008954
C           -7.59544797487409        3.13006803925919       -1.38625964468696
H           -6.73419787146072        4.22081869811168        1.02169672253588
H           -8.40545182161662        3.66705670715846        1.12822858205101
H           -7.14836444842634        2.83228367609247        2.02910276816732
H           -7.48149356448528        2.47866581079924       -2.24969274968697
H           -8.64079926574735        3.42030885649854       -1.31404618321663
H           -7.00192757148882        4.02665476572411       -1.55116151025597
N           -6.42225142212328       -0.74290402027438       -0.11644324989854
H           -6.78342195526540       -0.75739873687825       -1.93788781381949
C           -7.09643432966798       -2.02146723188303       -0.09736310813950
H           -6.61812756843718       -2.73900923896146        0.57967318895446
C           -8.56925555713712       -1.86572508633403        0.30157385088349
C           -7.05194531343383       -2.55784406747493       -1.53241448735710
H           -9.06377815430204       -1.15264580767537       -0.35582592209450
H           -9.06937292788088       -2.82703997806339        0.22402746825354
H           -8.63536297560625       -1.50811662750894        1.32626841588597
O           -6.90706639095468       -1.59352051764147       -2.43974022982697
O           -7.15835221356704       -3.71693464855119       -1.81576582504295
