42
 energy: -62.486133510041 gnorm: 0.000480512104 xtb: 6.7.1 (edcfbbe)
N           -1.47520922457956       -1.69863444024397        0.94283862732464
H           -0.46874190210452       -1.80676174972444        0.93608173856965
H           -1.88352410383944       -2.61475247083931        0.77735605488369
H           -2.88709286633427       -0.93566985310299        2.00318727304560
C           -1.91271915577307       -0.76221360302000       -0.08984291792082
H           -1.25852819391530        0.11720911970892       -0.03616224669169
C           -1.88483381175811       -1.32111427892991       -1.51261203645210
C           -3.30808127244893       -0.28951387731100        0.29413471709071
H           -2.49902395821113       -2.21855588173153       -1.57741361484798
H           -2.27462659513093       -0.57799234525472       -2.20084250286944
H           -0.86653578244000       -1.57409906233340       -1.80036392196842
O           -3.64273219441901       -0.48198696679285        1.57635860913842
N           -4.03610710371462        0.27252815066969       -0.56909528645684
H           -4.96593653620548       -1.22806702366514       -1.51920785440040
C           -5.38012489185839        0.69642331609284       -0.22251178114263
H           -5.45180708687961        1.00089636803835        0.82732185777530
C           -5.73136767947814        1.87422274238154       -1.14834001499892
C           -6.32041872105000       -0.46903006246975       -0.44500045686538
H           -4.97121812926366        2.64212794683064       -0.99056844392537
H           -5.63568006103068        1.52597818124818       -2.17933285285483
C           -7.12044215841974        2.48346539800065       -0.94659840055167
O           -5.85687778718799       -1.47298326876934       -1.21254360076472
H           -7.87063480353936        1.70412086756923       -1.10719926115007
C           -7.29829807797299        3.04926258693660        0.45990348532169
C           -7.34188308953312        3.58517915857807       -1.98239313252571
H           -6.54788050603019        3.81169010272430        0.65998474029098
H           -8.28179634079494        3.50217115039476        0.55787538657523
H           -7.20971397967535        2.26886173477973        1.21034353363356
H           -7.23589706291104        3.19489076369186       -2.99192864693933
H           -8.34021678972906        4.00308262693010       -1.88097467970129
H           -6.61869230948114        4.38686091697908       -1.84638372723079
N           -7.49253581549890       -0.42247925400795        0.01384461448603
H           -8.87703016093171        0.53109050031485        0.73090130299255
C           -8.44182327059271       -1.48562778535246       -0.22916037988146
H           -8.41494316155764       -1.82699488072799       -1.27224724504638
C           -8.19177425611219       -2.68674261583753        0.68936855691984
C           -9.83999800354249       -0.92733225716070        0.07301791598868
H           -8.16557614163701       -2.36030457272248        1.72713941693091
H           -8.99263097082613       -3.40961185508728        0.56204437674881
H           -7.24102078671504       -3.15114737297084        0.43972586729631
O           -9.82251818576643        0.26161350214894        0.66262533176104
O          -10.84969833005403       -1.52208547952654       -0.18439534219629
