42
 energy: -62.486133511794 gnorm: 0.000479936678 xtb: 6.7.1 (edcfbbe)
N           -2.08541096016955       -0.72081955100896       -1.63652874376718
H           -2.08970040775255        0.18316930909402       -2.09791486543912
H           -1.99725931891382       -1.43336089654115       -2.35233851765556
H           -1.38772585619761       -0.42647021403774        0.14245081518508
C           -3.32359325119487       -0.91505387245505       -0.87377261605010
H           -4.23271049464635       -0.65467824090798       -1.42591857568797
C           -3.39881871597802       -2.37639275147544       -0.42920193982248
C           -3.19844528868929       -0.04353303785752        0.37700253993935
H           -2.50625470983824       -2.64458944026651        0.13287332796132
H           -4.27057819677146       -2.52332580259863        0.19944307483518
H           -3.47691199313668       -3.02995181927689       -1.29559355266257
O           -1.94018964024793       -0.01061714835639        0.83693725451947
N           -4.03946925304662        0.63229137906384        1.02201073877071
H           -7.54738108142067        0.47087547936026        1.90813417190562
C           -5.42916876582849        0.90035471791717        0.84390019198610
H           -5.73987036176633        1.30535516595281        1.81938873850129
C           -5.58051650607888        2.01543041196742       -0.22250808515583
C           -6.39766271525458       -0.20682159640745        0.48190687383048
H           -4.81922953535118        2.76946383216485       -0.01431967913534
H           -5.35726463576825        1.56534730713407       -1.19156244917346
C           -6.95938708610715        2.68299387979776       -0.27781071478773
O           -7.56921118946036       -0.20384101038448        1.21760802950022
H           -7.73671571008953        1.91174026796302       -0.31411289103684
C           -7.20168005335840        3.58253758637762        0.93309659641552
C           -7.06914254991643        3.50735861887028       -1.55972585875172
H           -6.46881584257348        4.38593444928792        0.95300843006372
H           -8.19368383132823        4.02536898573617        0.88040458283906
H           -7.12598655514675        3.03641704931909        1.87080909278100
H           -6.96823823817020        2.87018417101142       -2.43492651361967
H           -8.03524065612239        4.00370280720327       -1.60969645661292
H           -6.28995287833590        4.26580482772883       -1.59112051272127
N           -6.16327446371420       -1.02889630387978       -0.42918775891539
H           -8.71954628142672       -0.55669146746548       -0.16086755831454
C           -7.01712198213529       -2.09591108498148       -0.88910197158617
H           -6.39766084747454       -2.68300976729596       -1.57711161816763
C           -7.55892205638431       -3.02022159680698        0.20789812541742
C           -8.18801858589111       -1.54617877662125       -1.71948069047688
H           -8.22700699187017       -2.49502827982568        0.88653236575770
H           -8.09931218261896       -3.84385468568990       -0.25222940623896
H           -6.72991233922350       -3.42339136347602        0.78578106078988
O           -9.00419820129599       -0.70822109543701       -1.08192342168233
O           -8.36499861075232       -1.85488963141689       -2.86284470571774
