42
 energy: -62.486133513086 gnorm: 0.000479978394 xtb: 6.7.1 (edcfbbe)
N           -1.95827346918128       -2.33346883087838        0.09500518192069
H           -1.23162450373877       -2.40226769437335        0.79490000269035
H           -1.68377008144713       -2.88862387451132       -0.70607377416408
H           -3.72947774090947       -2.42201581529147        0.56174811953086
C           -2.22641002115060       -0.94480750621386       -0.29185906810093
H           -1.57137963879707       -0.24765009519068        0.24097270918987
C           -2.06982618841345       -0.72152098042137       -1.79455890473082
C           -3.66979539788844       -0.62134913058585        0.10295839366706
H           -2.72460827378700       -1.39661497085491       -2.34213723910139
H           -2.34906792067037        0.29965795619645       -2.03337023465652
H           -1.04000511919360       -0.89363007408626       -2.10279389993762
O           -4.36503904450005       -1.66714421159343        0.57166997310381
N           -4.05538804709095        0.56663100451386       -0.01303492876488
H           -6.23277293153529        0.42105054938843        2.40312408056508
C           -5.40012755270978        1.04600062661460        0.19243931659570
H           -5.33883769333850        1.75786090422088        1.02933549477258
C           -5.80277939032699        1.80776645254903       -1.08035950883807
C           -6.43288073799662       -0.01146622501506        0.51324322869668
H           -4.98338634101175        2.48028043180870       -1.33718779830330
H           -5.90649101221450        1.06599551253543       -1.87191094341117
C           -7.10930026868737        2.59652569000811       -0.95157169225705
O           -6.80553610586784       -0.11421674230157        1.84144141298953
H           -7.88591832258628        1.92789000168663       -0.56501336497383
C           -6.96791839883230        3.78943097743518       -0.00803200350122
C           -7.54390924068421        3.07985534740605       -2.33371945143989
H           -6.17338390480129        4.44951456751210       -0.35008560064932
H           -7.89584140562871        4.35587054894381        0.02097822052465
H           -6.73955761821202        3.47488658897714        1.00751636275482
H           -7.69576417084979        2.23575291865599       -3.00118520373912
H           -8.47632950950846        3.63537015652479       -2.26740761204883
H           -6.78501961012947        3.73026192831016       -2.76391867788401
N           -6.89260519736573       -0.72092912325534       -0.40753413134782
H           -8.57889759978870       -0.34454556334736        1.50060332863479
C           -7.86040611945125       -1.77996579813048       -0.29192465823219
H           -7.87302264582172       -2.26755108371401       -1.27375345080745
C           -7.54905669676077       -2.82751444956723        0.78560810260766
C           -9.27539402629900       -1.23463042378852       -0.05321059179332
H           -7.63902626202650       -2.41154364714818        1.78655856193303
H           -8.23689783467490       -3.66362589833918        0.68610440222706
H           -6.52981208301741       -3.18075302578451        0.65234157938328
O           -9.41987472269282       -0.45345455501351        1.01823291703988
O          -10.20077837980096       -1.50333799796206       -0.76520351711511
