42
 energy: -62.486133508817 gnorm: 0.000480774830 xtb: 6.7.1 (edcfbbe)
N           -2.65397106357543       -1.58977615150624        1.83369773345127
H           -1.76524984720685       -2.06895968537185        1.91447276812641
H           -3.38498404453015       -2.26546932181233        2.04673629155107
H           -3.60187785135031       -0.01982393501305        2.37470576807970
C           -2.84721688317676       -1.07699195993216        0.47785354406865
H           -1.95013470869960       -0.50147259444752        0.21305118292088
C           -3.09359207078118       -2.15156208346134       -0.57879683364862
C           -4.01045170532261       -0.10041580960875        0.54828405258347
H           -3.93642521616354       -2.77235638821361       -0.28340597313087
H           -3.32926432154255       -1.67923116500660       -1.52604983236703
H           -2.21343819513365       -2.78081690280901       -0.69442909459227
O           -4.22699590629629        0.42633156315932        1.76697432911817
N           -4.70223723961675        0.13036390596190       -0.47621578807868
H           -7.97631330037145        1.12603564861851       -1.72136122897139
C           -5.86324508803719        0.99202597678574       -0.39699815798248
H           -5.89949495420558        1.52904433298596        0.56229259661615
C           -5.82478179566353        1.99492143971524       -1.55642453107879
C           -7.05697901313016        0.04676602075068       -0.43168794753696
H           -4.78301326522343        2.29089974006338       -1.69324610250798
H           -6.12136740896782        1.49108316625150       -2.48121935021479
C           -6.67176624697527        3.25518743478688       -1.31457584653972
O           -8.11884791421168        0.31996481477899       -1.20809595860244
H           -7.61147494553850        2.98328396731607       -0.81650089390612
C           -5.93045772916066        4.23182752912414       -0.40338379853662
C           -7.00498406931270        3.93243309058311       -2.64355057640592
H           -5.02233347031813        4.58355151847979       -0.88819480379017
H           -6.55563251910403        5.09301662136189       -0.17912572940582
H           -5.65492372915384        3.75724483706335        0.53512991980573
H           -7.58636295333695        3.27679781323621       -3.28976793471286
H           -7.58136055414099        4.83882222137587       -2.47398933088091
H           -6.09035925832954        4.20227313296399       -3.16672714956470
N           -6.96593671565020       -0.96581325130687        0.30808981655789
H           -5.87159493075826       -1.80466676155330        1.32537116961989
C           -7.89971709443821       -2.05234052546896        0.43004664907092
H           -8.81116074615993       -1.72407791909007        0.94687301933647
C           -8.28570077491495       -2.70973954449143       -0.89688099742307
C           -7.19863156641320       -3.09465642153809        1.32809711238305
H           -7.38725146304508       -2.95683950207051       -1.45930347005017
H           -8.83855697416920       -3.62214957079350       -0.69112523553271
H           -8.89973257732137       -2.03703194384313       -1.48890397418461
O           -5.98729564715299       -2.71341370731880        1.71949244345193
O           -7.69107551332789       -4.14629545661524        1.62772734591804
