42
 energy: -62.486133509980 gnorm: 0.000480584365 xtb: 6.7.1 (edcfbbe)
N           -0.71009054417617       -0.08400691926026       -0.18413190522337
H            0.12297782069974       -0.37012570008380       -0.68316364964961
H           -0.58384286282594       -0.33385729044718        0.79283438944248
H           -1.83155047989744        1.43270771029840        0.01621882100223
C           -1.89922789504388       -0.74654712516279       -0.71683012555317
H           -1.84069394316477       -0.69184058603256       -1.81175186384727
C           -2.04820247788648       -2.20634864300507       -0.29082212079071
C           -3.10409117694759        0.09499900921402       -0.30187009341841
H           -2.14074488890933       -2.27235050650045        0.79123243983669
H           -2.93713214903000       -2.64011705915282       -0.73582592662629
H           -1.17917301292207       -2.78009693919549       -0.60735468914156
O           -2.80814930970995        1.35068501393462        0.05492244207546
N           -4.24415743508162       -0.43490139214131       -0.30745918097423
H           -5.18329778508935       -1.64014153394015       -1.30437631382395
C           -5.49588193201088        0.23361062328617       -0.02279168961557
H           -5.59287668074185        0.39431420272590        1.05513099803960
C           -5.63168591346819        1.58471559429509       -0.75587873250420
C           -6.57749978075408       -0.72763876835308       -0.48897754720009
H           -4.82012293910683        2.22853519682165       -0.41551514539724
H           -5.48814046331032        1.39922451692915       -1.82452605813851
C           -6.95844086717315        2.31991821165354       -0.55088957822201
O           -6.16208780158403       -1.71482374621689       -1.28971001574864
H           -7.77182971357135        1.69371734494315       -0.92627017558161
C           -7.21562302907712        2.62990121057185        0.92120366412007
C           -6.93930556532768        3.61627832547556       -1.36022299398607
H           -6.39964114773682        3.22155203411554        1.33193883362033
H           -8.13765533998013        3.19593240319909        1.02760088848730
H           -7.31047167877276        1.71647391316189        1.50178616190154
H           -6.77152564525922        3.41196513882928       -2.41524953048762
H           -7.88877780929603        4.13605068661527       -1.26046101117071
H           -6.14806819645423        4.27495433151473       -1.00750288794684
N           -7.77311567254927       -0.55857692170016       -0.12308837246218
H           -9.09205067810053        0.50083271041712        0.57229756310168
C           -8.82537293936721       -1.44371443688169       -0.57489103284418
H           -8.73231504683324       -1.67925840407069       -1.64270137653460
C           -8.83788306468729       -2.75477850890821        0.21948137243806
C          -10.16168079142583       -0.72599171192470       -0.34133181723272
H           -8.88858887787408       -2.54161493582679        1.28545694538506
H           -9.70537529940667       -3.34167771403939       -0.06867721085002
H           -7.93247209786223       -3.31985027790061        0.01307788420613
O          -10.05237593628850        0.37789349116791        0.38832068325979
O          -11.20795020891124       -1.13802841997947       -0.76029702638145
