42
 energy: -62.486133502078 gnorm: 0.000481891670 xtb: 6.7.1 (edcfbbe)
N           -1.71918157957348       -2.05006447903356        0.24529336454038
H           -0.77096274170233       -2.29397615047169       -0.01577763765541
H           -2.29533572877308       -2.87563555211743        0.10009047709609
H           -2.76856413770297       -1.21742473177687        1.64225642373349
C           -2.22067540803077       -0.95705749370032       -0.58926726098041
H           -1.45779713218625       -0.16735970922827       -0.58252972916728
C           -2.53682504090798       -1.34565519101511       -2.03080844642914
C           -3.45205145799091       -0.39330021240712        0.09949453533386
H           -3.28385378650068       -2.13577340434450       -2.04606528572517
H           -2.94836944493660       -0.48707275252932       -2.54914203684964
H           -1.63852384000482       -1.68752142131987       -2.54164377874219
O           -3.53469475308873       -0.65119924602357        1.42194713495466
N           -4.29029482326985        0.26688007546419       -0.56118074877914
H           -7.32297431576141        0.72331665732338        1.62430595038068
C           -5.45454544211398        0.82078237339856        0.08410212571697
H           -5.23784321005518        1.09870579979741        1.12882219348849
C           -5.86275851483735        2.05677293234237       -0.74067059388019
C           -6.56611641775520       -0.20013939633128        0.08158725355225
H           -4.98364102761650        2.70051436730691       -0.80798188739157
H           -6.08366728092270        1.69578418851293       -1.74581352232342
C           -7.04613053318537        2.87192881425311       -0.21050984206230
O           -7.55175520215636       -0.00668785475365        1.03620661259484
H           -7.90909335553578        2.21371966086827       -0.06178301825064
C           -6.71138226250544        3.57182928952576        1.10706271352771
C           -7.44363767575583        3.91410988151118       -1.25536014208982
H           -5.88022632238548        4.25882201804088        0.96284600607209
H           -7.56769449213998        4.14262584058041        1.46012128903504
H           -6.43101118512670        2.86888863149082        1.88972941795176
H           -7.73851656443954        3.43065297570566       -2.18307368691310
H           -8.28007552242581        4.51077488613155       -0.89887209297214
H           -6.60955205119466        4.58031956224772       -1.46386557067849
N           -6.56094821349908       -1.13467222988124       -0.74559679726488
H           -8.93798353749703       -0.41786384780521       -0.06022958032948
C           -7.52806698529963       -2.19226887870882       -0.87621767232956
H           -7.09398913138628       -2.89273748520048       -1.59913973028594
C           -7.83446594367872       -2.94217918586490        0.42807760938900
C           -8.85332118169753       -1.70554140656105       -1.48279182157886
H           -8.34031228911820       -2.30256895027809        1.14789466381215
H           -8.46691957118077       -3.79971315823632        0.21207626638020
H           -6.90385265361502       -3.29063727604347        0.87079024052217
O           -9.44978481411345       -0.70127944870044       -0.84101524032714
O           -9.33879569101320       -2.21012453201609       -2.45443304206578
