42
 energy: -62.486133563026 gnorm: 0.000453836240 xtb: 6.7.1 (edcfbbe)
N           -2.28099728346833       -1.69623851598486        1.55367468919430
H           -2.02640672346880       -0.99779241461757        2.24439026653940
H           -1.48377649708054       -2.30596979539169        1.41600324694555
H           -4.18558624406413       -1.85148643468027        1.81040142402218
C           -2.67600765595664       -1.06300269888683        0.29808004161918
H           -2.02930641468878       -0.22968812184698       -0.00850465819444
C           -2.70832963299381       -2.11108904917985       -0.81514506428226
C           -4.09240278634171       -0.53300599876350        0.48521289413956
H           -3.35016688615516       -2.94104911477164       -0.52756115550434
H           -3.09405386528551       -1.66447253633872       -1.72657279805883
H           -1.70789877896224       -2.49352956684005       -1.00680556349657
O           -4.80515986014281       -1.21212203789257        1.39616564609031
N           -4.43108456560156        0.47138906200783       -0.18479006901350
H           -7.15471093655594        0.77687829681075       -2.28358086229631
C           -5.73975330071489        1.08451684843757       -0.27363158258012
H           -5.96554646249571        1.54144349242308        0.70243543407804
C           -5.63556487729365        2.19040889214729       -1.32986956190414
C           -6.85313505900489        0.07816799621082       -0.51470660840744
H           -4.71078500070834        2.73125582267717       -1.12361746292027
H           -5.50325951996479        1.73967005936367       -2.31894941636755
C           -6.81234457434204        3.17848735477680       -1.32655284289607
O           -7.47493894173319        0.06428166206550       -1.71640707289398
H           -7.75371356269351        2.63374338487848       -1.18598819317184
C           -6.67720445937732        4.17968018519718       -0.18107750945757
C           -6.87716141672151        3.92240065707562       -2.66033636440825
H           -5.77003333663671        4.76847075180970       -0.29877354391406
H           -7.52727357232693        4.85778579635237       -0.16905957918997
H           -6.63605594748603        3.67254159129459        0.77946141715030
H           -7.04035541791415        3.23666387070426       -3.49000500124041
H           -7.69089380289610        4.64354199030563       -2.65368980241208
H           -5.94707367888930        4.45810159106360       -2.83769238372377
N           -7.12499583183434       -0.75129048220336        0.38813884134044
H           -6.75181304189562       -1.49981715215875        2.05204374200576
C           -8.11621342735926       -1.78580287758720        0.23453776346640
H           -9.06290419706871       -1.39314931447312       -0.15693221790943
C           -7.62891038683321       -2.91382884448559       -0.68379849693185
C           -8.35137644784107       -2.38582442130903        1.62847498756788
H           -6.67534540033641       -3.29579891813582       -0.32407753137429
H           -8.35868950560131       -3.71858686431347       -0.68423563422159
H           -7.50224833616958       -2.53984427520075       -1.69650258644788
O           -7.39541152503759       -2.09969322600188        2.49983858215463
O           -9.29730206948137       -3.07837255500904        1.88893992210302
