42
 energy: -62.486133511920 gnorm: 0.000480399216 xtb: 6.7.1 (edcfbbe)
N           -2.06445253721663        0.13852041313755        0.69314702036677
H           -1.31259687050696       -0.22639372570120        1.26844979527592
H           -2.66383079517442        0.71523041979527        1.27423531258643
H           -4.12954653373206       -1.55375232635063       -1.84294087334107
C           -2.85688030340857       -0.95067233855364        0.15224414800570
H           -2.31516538398573       -1.34734893753400       -0.72153028694756
C           -3.10144552830425       -2.10026128012700        1.14634784216379
C           -4.19504898596701       -0.40827245308268       -0.29610832166964
H           -3.61751932301281       -1.71955290590211        2.02419723060729
H           -3.70433055773361       -2.88783218762954        0.70176333528492
H           -2.14951899445005       -2.52883259137184        1.45414752919358
O           -4.71093733454374       -0.89140607381764       -1.44876185981994
N           -4.76593363746238        0.45095915652926        0.42400621731546
H           -8.29386588686921        1.30640390998872       -0.79870974592877
C           -6.03933963389317        1.01908184170697        0.05987016218465
H           -6.31009302907686        1.67352476629927        0.90204207557514
C           -5.95499377618549        1.86330015377591       -1.23456614880175
C           -7.13149130448101       -0.02591514897793       -0.04155380383885
H           -4.89896254501750        1.98812419063377       -1.48065709016275
H           -6.40775951416443        1.30707695757517       -2.05969312826892
C           -6.58928922124234        3.25662380986071       -1.11611507910544
O           -8.32261247591663        0.37870142659680       -0.53248427208532
H           -7.55695247298477        3.18742565178235       -0.59928320889875
C           -5.68936616594664        4.18699852010977       -0.30595079061461
C           -6.83349396884821        3.83850617050245       -2.50752319132121
H           -4.74928246881628        4.34663235123806       -0.82879862770076
H           -6.17022139113059        5.15146735212259       -0.15948196188572
H           -5.46583620283098        3.76204622679108        0.66932016701186
H           -7.51609541735620        3.21343308551366       -3.08021629978671
H           -7.26364956424053        4.83447557333233       -2.43343271741159
H           -5.89594941233842        3.91041029766002       -3.05384435588867
N           -6.92416853459534       -1.20073366487360        0.35565576704382
H           -5.95836095335841       -2.29977733601180        1.37030550488939
C           -7.93616128947881       -2.22938974988955        0.28709959285400
H           -8.89773197206855       -1.87790199663134        0.68361212514532
C           -8.14802056349026       -2.73372739996709       -1.14371065269640
C           -7.44720962196171       -3.39677050974064        1.15851612751757
H           -7.19183109614113       -3.01130215286406       -1.58261390210783
H           -8.79825243194354       -3.60372084621532       -1.12222983029155
H           -8.60244706843390       -1.95504638390517       -1.75045580081588
O           -6.23742223273625       -3.20044195020236        1.66957124383421
O           -8.08929763501171       -4.39332657300576        1.34176168511078
