42
 energy: -62.486133507980 gnorm: 0.000480765024 xtb: 6.7.1 (edcfbbe)
N           -1.42575006184576       -1.44504694649435        0.50985482505277
H           -0.85120303461185       -0.65524966467917        0.78584870360436
H           -0.80599963244967       -2.19945172499216        0.23849255136522
H           -3.02445659601125       -1.23491365256072        1.58052158644390
C           -2.30957310491398       -1.07927714950855       -0.59773863007019
H           -1.84181566211155       -0.42595507643642       -1.34609209700576
C           -2.82869128126481       -2.34040370905162       -1.28989837168255
C           -3.49814531067918       -0.35139828155503       -0.00437597600291
H           -3.28252846940098       -3.00747413809263       -0.55957205383218
H           -3.57470253599758       -2.06405406441127       -2.02888158092834
H           -2.01373917448167       -2.86466658580225       -1.78446560675422
O           -3.76114989373358       -0.65962783459619        1.28752369794914
N           -4.17246993152896        0.43869283377297       -0.70925736908866
H           -5.94985907864947        0.07035790996349        2.01476594527423
C           -5.35600993852747        1.06312104967781       -0.14731397194112
H           -5.09961881240103        1.56615744152197        0.79710160748297
C           -5.88641787119194        2.07173242941769       -1.16947018440842
C           -6.38783098401805       -0.00878531988831        0.12486945574559
H           -5.09745289912590        2.79756861370763       -1.37151895300799
H           -6.07894603621121        1.51091180525193       -2.08320995474925
C           -7.16478191750609        2.79327781337387       -0.73321564322557
O           -6.65664331646562       -0.27274520295586        1.45316177201509
H           -7.91306017040044        2.04234699104636       -0.45699188533210
C           -6.92476252421088        3.71181284787251        0.46391286157559
C           -7.71426433563684        3.60185830413908       -1.90642957459448
H           -6.13489555222133        4.42647831579168        0.24092919953335
H           -7.83092956948333        4.26550198816766        0.69879974921147
H           -6.64115847043506        3.14921548978058        1.35028490139608
H           -7.92323915535554        2.95075105164362       -2.75105631148826
H           -8.63660147564496        4.10443760646936       -1.62500236469313
H           -6.99342572542605        4.35428411623827       -2.21953894942970
N           -6.89575852240566       -0.62421755318803       -0.83728462038396
H           -8.43834418940803       -0.50094672215849        1.22994155865428
C           -7.83313917366711       -1.71381369298671       -0.77403688490075
H           -7.92355249348075       -2.07714725119250       -1.80437804088443
C           -7.39902856780327       -2.87595828782045        0.13070898175263
C           -9.23795399239716       -1.25890752588299       -0.34777061392115
H           -7.35072764656131       -2.57318372052019        1.17436711444266
H           -8.10731511406699       -3.69482297719675        0.03241245875566
H           -6.41409640699392       -3.22066735942439       -0.17690471806408
O           -9.31242867302261       -0.60395643619820        0.81002797227794
O          -10.21372395376256       -1.49786153859281       -1.00018544531629
