42
 energy: -62.486133507047 gnorm: 0.000479746079 xtb: 6.7.1 (edcfbbe)
N           -1.69398154699482       -1.21810554025417       -0.73361003319220
H           -1.08059474778683       -2.02298164297971       -0.69470149938084
H           -1.16407446736832       -0.41420860634419       -0.40819074090396
H           -2.94152137801028       -0.41930846322852       -1.94784743543185
C           -2.86739781986380       -1.41317046070282        0.11817789514694
H           -3.25753954658358       -2.41750833355687       -0.09016519307341
C           -2.60363405058885       -1.27794709302342        1.61440984731802
C           -3.93460885827790       -0.43402576104714       -0.35453108477430
H           -2.18894515828321       -0.29665950623547        1.83488800693966
H           -3.53945989079672       -1.38168192207788        2.15187564977469
H           -1.90499225752568       -2.04227836005793        1.94876885416457
O           -3.78940060565828       -0.04018648106108       -1.63681735610475
N           -4.86016966868885       -0.11617661339593        0.43066933631657
H           -6.88617052845690        0.80448441264147       -2.22128959527430
C           -5.95594548931321        0.76859316446364        0.08297736982581
H           -6.35196186225468        1.08810342058511        1.05557345801854
C           -5.58101825050750        2.01060554405422       -0.73259367350087
C           -7.02118158287042       -0.11666765828402       -0.54322255987850
H           -4.69956932612104        2.45319875294999       -0.26219775393251
H           -5.27630876876610        1.72620237174748       -1.74385660609082
C           -6.70090944771650        3.06202762305228       -0.78590357001820
O           -7.37411730370216        0.06850346504989       -1.82922549099941
H           -7.66550831726447        2.56288654734934       -0.93685655731498
C           -6.77881858684181        3.85122074429665        0.51913777811936
C           -6.46103406954443        4.01719481915835       -1.95512198553844
H           -5.84908190421481        4.38930047823393        0.69179550822301
H           -7.58944480113701        4.57475591331156        0.47443173384453
H           -6.95851545502117        3.19397996546482        1.36583072854093
H           -6.46532498384343        3.48822340637336       -2.90659126111797
H           -7.23601098214955        4.77914043620182       -1.98852923560522
H           -5.49901657985292        4.51312828757916       -1.84455977076997
N           -7.48526878175421       -1.04974415124070        0.16322387799953
H           -7.64629166836092       -1.84097833523107        1.77333279816674
C           -8.43759227884687       -2.00995156366688       -0.34197169377069
H           -9.27570599106590       -1.52206953535803       -0.85565044485096
C           -7.78818179255576       -3.01533487887557       -1.29999501596023
C           -8.97988471313191       -2.78105806353341        0.87227038134951
H           -6.92005426087190       -3.46794572514194       -0.82453406372189
H           -8.50714480552378       -3.79203228419464       -1.54495039111975
H           -7.47272539352081       -2.51262850795465       -2.21058198023943
O           -8.32495820705298       -2.52350618066371        1.99603672409181
O           -9.89212514691667       -3.55741952464698        0.79903035713569
