42
 energy: -62.486133509928 gnorm: 0.000480163056 xtb: 6.7.1 (edcfbbe)
N           -1.50178400630862       -0.78650540270955        0.13029238110256
H           -0.86796883455675       -1.56467787133654       -0.00201759162722
H           -1.22410225407126       -0.30655775642187        0.98208731475787
H           -2.21002830317392        0.63143694894337       -0.83800013688992
C           -2.88569684524011       -1.24935364232472        0.25237353603079
H           -3.04071238133476       -2.03445610297049       -0.49683010206891
C           -3.24108423666914       -1.79467174551561        1.63270968075331
C           -3.79655551487547       -0.08566695278840       -0.14653822533105
H           -3.07962298410119       -1.02952856253379        2.38976094367848
H           -4.28514401873644       -2.08513833095516        1.65394463616783
H           -2.62421292420991       -2.65984553287921        1.86747006363905
O           -3.15431672839476        0.90091625430751       -0.80771029935234
N           -5.00933296540999       -0.16659518631147        0.14815737348660
H           -8.19589376476813        1.35013155251269       -1.25015078184140
C           -6.08667690980648        0.74720069497359       -0.11293475358068
H           -6.28713532144915        1.24072150141296        0.85114176639385
C           -5.89889815437702        1.83170884429111       -1.19638986472544
C           -7.30544162355963       -0.12397526477076       -0.39016138840369
H           -4.83347081524612        2.00297513723469       -1.33284815613939
H           -6.27944170220522        1.45842715113096       -2.15249216145077
C           -6.55231252177320        3.17893994828564       -0.84397944520361
O           -8.36780458446709        0.42980566375357       -1.01333990765247
H           -7.53844013176799        3.01886541954265       -0.38574362984966
C           -5.69326967025048        3.94018849993041        0.16403175381481
C           -6.74005454994858        4.01695389090430       -2.10786779136905
H           -4.72576049658323        4.17761091065282       -0.27233910793719
H           -6.17859685315061        4.86932241551244        0.45459022444512
H           -5.52541900981891        3.34836991596275        1.06092230715445
H           -7.39096817128268        3.51542959498711       -2.82205753391810
H           -7.18152063832107        4.98062824164335       -1.86427813531715
H           -5.77931855028183        4.19188546153477       -2.58671530513502
N           -7.29352324977958       -1.31346036373457        0.00975457455424
H           -6.41898922933704       -2.54054863377324        0.89313045273893
C           -8.38192831961697       -2.24279637147589       -0.15145485373285
H           -9.32662227373633       -1.83159262225802        0.22694252740644
C           -8.58063799290373       -2.67899412553417       -1.60659184876300
C           -8.00822497784870       -3.48042859067966        0.68686387383155
H           -7.63752646566691       -3.03376151334149       -2.01748204899747
H           -9.30931486422156       -3.48404901426991       -1.64104322480327
H           -8.93613206012495       -1.84253805200979       -2.20259594293732
O           -6.77898037578372       -3.42255185015805        1.17849216858913
O           -8.75332603069141       -4.40585054565792        0.85783211794133
