42
 energy: -62.486133500704 gnorm: 0.000482767664 xtb: 6.7.1 (edcfbbe)
N           -1.31516250750410       -0.47662687680272        0.81803218583040
H           -0.50027939126451       -1.03649606659773        0.59839977628074
H           -1.44997584723166       -0.51999301982035        1.82443186654882
H           -2.08637411851779        1.24760277882679        0.37158319186878
C           -2.50317344943985       -1.00409315490627        0.14282909364162
H           -2.23629101239854       -1.13705594725974       -0.91434616695564
C           -3.02173981773503       -2.32557222959528        0.70103553528292
C           -3.55698479230294        0.09089764542149        0.18768191834536
H           -3.36109877031685       -2.19437181750294        1.72528065936934
H           -3.85998251860327       -2.67366459495726        0.10886064981530
H           -2.23404314917514       -3.07654136985004        0.67993755465721
O           -3.05181880489234        1.34221582416674        0.24700065941175
N           -4.77538698731776       -0.20853771585570        0.17927946749015
H           -8.02116424906747        1.70689666978266        0.72415646347954
C           -5.81531205872731        0.79277351741489        0.15525689777875
H           -5.71508207216450        1.47736458848503        1.01091810895457
C           -5.73110448474777        1.59583965340219       -1.16525726881250
C           -7.13534675465411        0.06258662527005        0.24154532376187
H           -4.72905907939049        2.02444782894141       -1.21630512358804
H           -5.83022339921168        0.87348380242980       -1.97895171780908
C           -6.74807235484996        2.72432999476493       -1.36551491933686
O           -8.24079505999928        0.78302509152227        0.55328422147566
H           -7.76488322945798        2.31920764598537       -1.32288366863060
C           -6.59029836422882        3.82971797284909       -0.32122015545280
C           -6.55391336822470        3.31740726958313       -2.76169848900700
H           -5.58722549849593        4.24786962804701       -0.37284673993496
H           -7.30412387003629        4.62927814922815       -0.50789469754515
H           -6.74851904648137        3.47115696164117        0.69473882503862
H           -6.68443429099942        2.55430073644799       -3.52519608677874
H           -7.27713534924627        4.10938256333857       -2.94217166241921
H           -5.55469996961733        3.73576869197794       -2.86102047955302
N           -7.15567849810190       -1.18081202416207        0.08229204869778
H           -6.17522249088545       -2.63585351291809        0.13895884260135
C           -8.33579104933661       -1.99641836780591        0.18775805839627
H           -8.96005891678911       -1.71407223849244        1.04593186525759
C           -9.18843482325130       -1.94009945565495       -1.08334976100858
C           -7.83662426905054       -3.43993351937156        0.38956563600083
H           -8.57219684459193       -2.16340139561935       -1.95175250918320
H           -9.98452679389314       -2.67590002108635       -1.01285244894780
H           -9.61988542654322       -0.94885665557852       -1.19875106511874
O           -6.52039298970054       -3.55550932477828        0.29195690088928
O           -8.57367548674797       -4.36377001515912        0.60023208363800
