42
 energy: -62.486133515394 gnorm: 0.000479452207 xtb: 6.7.1 (edcfbbe)
N           -2.71735555486126       -2.22089838081386        1.42666378974196
H           -3.08416819667797       -2.19867421735160        2.37209542384371
H           -1.75027221354313       -2.51881231231168        1.46914835383716
H           -4.28663622075659       -2.61229743050865        0.45332013961640
C           -2.83580062039315       -0.91110801181006        0.79235361946353
H           -2.56120078783607       -0.07164422090509        1.44565244272332
C           -1.96816916611035       -0.86840630196251       -0.46546016929476
C           -4.30038165361885       -0.74306448094561        0.38677731399604
H           -2.23677551987404       -1.68426683676460       -1.13288334244310
H           -2.12062821698360        0.07511118514799       -0.98010572215802
H           -0.91588038727978       -0.96163976013353       -0.20477823485756
O           -4.92452507770128       -1.91488211263745        0.17978492938873
N           -4.71623249313427        0.42622068181498        0.23046117962859
H           -8.00108581674049        1.29683195561190       -1.50957316056068
C           -5.99852417844144        0.97153126975636       -0.11497076261926
H           -6.24466952816442        1.62629025822401        0.73677548926116
C           -5.77326429114148        1.86614829887373       -1.35693548070931
C           -7.20148115429758        0.05215954315904       -0.26770670385510
H           -4.69761307536274        2.03519265141244       -1.43093106644329
H           -6.06682532630273        1.31964132482063       -2.25818102346244
C           -6.47236346967166        3.23434361155811       -1.29558776003226
O           -8.20605636171081        0.45613554481397       -1.08313577496867
H           -7.48154154400392        3.12650994731012       -0.87613036706588
C           -5.69520302699852        4.18845054618319       -0.39108937117747
C           -6.59460214922936        3.82604951167147       -2.69934279703633
H           -4.71884400627209        4.40081322525396       -0.82041960845408
H           -6.23212075519732        5.12716459101106       -0.27556235010750
H           -5.54547534334691        3.75457476725428        0.59419808147918
H           -7.19711597796544        3.19097115811566       -3.34655858472374
H           -7.06024684640627        4.80784972638995       -2.65869809988514
H           -5.60964694039735        3.93353900300831       -3.14814425776057
N           -7.27254450168129       -1.00432951813618        0.40564670624392
H           -6.44677545116472       -2.32839764621469        1.41255069109802
C           -8.40851876188011       -1.89156926863945        0.36615699643455
H           -9.35501193867700       -1.35205102410031        0.49372082429156
C           -8.46211353256085       -2.69620269888518       -0.93843110788838
C           -8.22690847918154       -2.88575213692195        1.52109934957190
H           -7.50798777877656       -3.19311334661995       -1.10230777251964
H           -9.25009499899691       -3.44143847214003       -0.87214247931322
H           -8.66392827514343       -2.03151293259852       -1.77438683515701
O           -6.97084250987834       -2.98275332438904        1.93605607133748
O           -9.12675916579796       -3.53474032811517        1.97993715269016
