42
 energy: -62.486133510874 gnorm: 0.000479652104 xtb: 6.7.1 (edcfbbe)
N           -1.09778847413452       -1.54257333051596        0.61890618761776
H           -1.06960164964073       -1.35718866579484        1.61616013301866
H           -0.14360494148610       -1.64041307450439        0.29247072615732
H           -2.71892380430271       -2.47678201279125        0.38877604537641
C           -1.78414534301592       -0.46357141154543       -0.09033875195089
H           -1.55426603187610        0.53888314085614        0.29342584740546
C           -1.43956444447477       -0.52131696021986       -1.57858328948062
C           -3.28122568041559       -0.70466328525171        0.06745288700641
H           -1.65907897088135       -1.50959676771133       -1.97741512176731
H           -2.02619155048802        0.21692650397680       -2.11696146690361
H           -0.38330491091029       -0.31038121865317       -1.73092363097144
O           -3.58029085812262       -2.01937431581934        0.26741216352793
N           -4.05254921176894        0.26793688158172       -0.02587893017386
H           -5.17802022019288       -2.03707634508236       -0.35668317883344
C           -5.47006371983202        0.47490661583647        0.04121443432673
H           -5.63707329287110        1.03246094968169        0.96909920769623
C           -5.74392217688305        1.42873745256610       -1.15482272910668
C           -6.47856709311544       -0.66389123926156        0.00252788541853
H           -4.92410426430724        2.14941173798853       -1.15424658409827
H           -5.66569250530514        0.83938713372127       -2.07204585770319
C           -7.07300162656665        2.18501091331000       -1.16302264445105
O           -6.13972114520105       -1.89514980865105       -0.39423950035626
H           -7.89024256087815        1.46131135947490       -1.20246620544821
C           -7.24414370954548        3.05858671653762        0.07620404003423
C           -7.14335825295801        3.05031961222755       -2.42134302871130
H           -6.42686693146276        3.77308154429858        0.15210288115488
H           -8.17892958041781        3.61019173873009        0.01665524435602
H           -7.26504312853089        2.45825966956671        0.98156722540935
H           -7.04045876149605        2.44153915300963       -3.31660745797486
H           -8.09857471489641        3.56685819201078       -2.46878505469582
H           -6.34981234108977        3.79494139290366       -2.41870262335698
N           -7.68103025408539       -0.34734163973093        0.24068925471634
H           -8.97388217621631        0.87869209865793        0.65346002227404
C           -8.74598749110129       -1.32211541563646        0.14576243944200
H           -8.69617537963277       -1.88744651419791       -0.79343824953739
C           -8.73131608239747       -2.31204348064079        1.31732241467389
C          -10.07413823736413       -0.55506772509940        0.19328096559550
H           -8.73173655791332       -1.76966019746768        2.26107270177684
H           -9.61647977917984       -2.93982451579289        1.26671431435548
H           -7.84263733871342       -2.93567656629361        1.26586548303669
O           -9.94105867084960        0.71509728876530        0.55742534187909
O          -11.13361740237101       -1.06341111080532       -0.05012898214262
