42
 energy: -62.486133507409 gnorm: 0.000480815520 xtb: 6.7.1 (edcfbbe)
N           -1.96394269082564       -1.30448911911829       -0.76035165593659
H           -1.74372847299979       -0.69042629058455       -1.53790920343872
H           -1.82243040389617       -2.26082093312085       -1.06542752979835
H           -1.56054409410448       -0.28909650382538        0.81864978750726
C           -3.33811322735422       -1.10336507909480       -0.30101900183428
H           -4.05729026842225       -1.03714694058287       -1.12703213721466
C           -3.72881421409186       -2.25450692009515        0.62813692374872
C           -3.35302129774998        0.17102284604587        0.55654634589747
H           -2.99147493913239       -2.35162697424866        1.42242782145326
H           -4.69827251063846       -2.05509714049764        1.07564959837351
H           -3.77706571891179       -3.19224007812345        0.07763354014383
O           -2.18500278200441        0.37757835561920        1.17393091049235
N           -4.29846942760763        0.94544388907168        0.84724628645935
H           -5.71710959922886        0.48131081925212       -2.12254371961864
C           -5.59222689512437        1.14009533140787        0.26309617202775
H           -6.21713981243011        1.42616903607347        1.11886828531396
C           -5.49168797788988        2.34977291159286       -0.68374073266154
C           -6.30151342591496       -0.04558680920537       -0.36894199750527
H           -4.99708910764806        3.14164063033160       -0.11913345997261
H           -4.82536130823599        2.10913066780406       -1.52140547317825
C           -6.83666884099691        2.86928518252755       -1.21011716576405
O           -6.17778629982612       -0.25705468814066       -1.70255391249699
H           -7.37810064580957        2.06009887456510       -1.71456270322624
C           -7.71768515777071        3.39156863168129       -0.07777688008379
C           -6.58017396404931        3.98146522231621       -2.22715246340589
H           -7.18278024200419        4.13645592456840        0.50658382928188
H           -8.61341305279241        3.85336429589788       -0.48634253852313
H           -8.02782335162072        2.58687344458880        0.58337345834107
H           -5.97018580411776        3.62568290478709       -3.05547126179675
H           -7.51956538840391        4.34971527746607       -2.63172521723430
H           -6.06217752648975        4.81183920460422       -1.75287729003359
N           -7.01685351592050       -0.78118884704208        0.36178896307228
H           -7.94810575895288       -1.00162987485232        1.92990585621072
C           -7.81767984362167       -1.85425276118516       -0.18422339830449
H           -8.27702430911104       -1.56017374746265       -1.13725520336804
C           -7.02862588018382       -3.14798955678161       -0.40806353847226
C           -8.93313117217701       -2.14997770540244        0.83103089039722
H           -6.57416488123785       -3.47845268478882        0.52322867502621
H           -7.70983716692948       -3.91787662618388       -0.75946322331213
H           -6.25246391466822       -2.98716397648529       -1.15184036977808
O           -8.76208049711366       -1.54999216897025        2.00226164686191
O           -9.85956585956186       -2.87037419669254        0.58551191008648
