42
 energy: -62.486133504437 gnorm: 0.000481143616 xtb: 6.7.1 (edcfbbe)
N           -1.77761276349031       -1.17427767638615       -0.90721115315663
H           -1.51790872813378       -0.50629118611433       -1.62495413137569
H           -1.61165613753252       -2.10629081703321       -1.26817654927730
H           -1.43461358776588       -0.25003095287768        0.70579079436244
C           -3.17510581989018       -1.00841422179527       -0.50866577017301
H           -3.84015373282133       -0.85200900616396       -1.36835408503013
C           -3.62830892780469       -2.24519129580916        0.26824845055448
C           -3.23716443175263        0.18350729593561        0.46395357004043
H           -2.93555887030863       -2.44022005165466        1.08437677985818
H           -4.61801726168001       -2.08189688262645        0.68501466963282
H           -3.65943912079467       -3.11717496508548       -0.38328254971858
O           -2.07757498786331        0.37779834674551        1.09988044158465
N           -4.20231342587393        0.90612105941043        0.81446352725930
H           -5.63307142995478        0.20626600082379       -2.02456473350191
C           -5.52199163922162        1.10005493964828        0.29136374923595
H           -6.09507722701858        1.44132120635993        1.16200032006748
C           -5.46393349961997        2.24792940054702       -0.73444162754757
C           -6.28639935024836       -0.09807128338777       -0.24485474776204
H           -4.96603446460874        3.08412203358239       -0.24104403967518
H           -4.82066663605683        1.95778552753520       -1.57460059121856
C           -6.83144807529532        2.70766698664815       -1.25718626758301
O           -6.12960845881736       -0.46577236983375       -1.53920892373420
H           -7.36230698304229        1.85761509404549       -1.70215401433166
C           -7.69969076230199        3.27247009410230       -0.13572199472043
C           -6.62430841905563        3.76422870732048       -2.34239033210494
H           -7.17077054803754        4.06225798801203        0.39264243212091
H           -8.61566319743107        3.68866636497551       -0.54835991268704
H           -7.97382357687855        2.49865257237393        0.57612156067467
H           -6.02261976278788        3.37473697897584       -3.16171524241363
H           -7.58099697835623        4.08483907453375       -2.74703886695489
H           -6.11801896012757        4.63359897071761       -1.92910938742838
N           -7.10935224467044       -0.66770836594726        0.51986819269990
H           -8.09123332086554       -0.65219331587808        2.07207436671515
C           -7.96842938876996       -1.73836673105981        0.06833921234032
H           -8.37979671081222       -1.52644672662098       -0.92753472756550
C           -7.26014868932178       -3.09616794377447        0.02098071244938
C           -9.13030755764384       -1.83936121831268        1.06959512500972
H           -6.79840383349140       -3.31233127359640        0.98253360177660
H           -7.99262713477054       -3.86758713657863       -0.20026717016466
H           -6.49711421733268       -3.09243110049579       -0.75317813774630
O           -8.94717220172543       -1.12705265192411        2.17384611147358
O          -10.09977737996348       -2.51661809954230        0.87165926886288
