42
 energy: -62.486133509774 gnorm: 0.000480610498 xtb: 6.7.1 (edcfbbe)
N           -1.08414401427140       -0.65249940178398       -0.96486598816362
H           -0.33517289556786       -1.32579643285890       -1.07191256172115
H           -0.72901434458775        0.10956686165292       -0.39374356907614
H           -2.39301715116542        0.23198867022398       -2.04574356243841
C           -2.24380956610750       -1.25912435444255       -0.31001093757105
H           -2.44663684608358       -2.20789777384164       -0.82525725317146
C           -2.07597332363538       -1.52294335362537        1.18329585289357
C           -3.43402653526119       -0.34897915552157       -0.58904595169728
H           -1.84404914841750       -0.59583990966777        1.70406008640743
H           -3.00439253422712       -1.91511871345624        1.58447255730463
H           -1.27476498364461       -2.23854817418646        1.35603082607027
O           -3.31401687677088        0.36096567141110       -1.73864022630185
N           -4.41836255079978       -0.37651013726128        0.18487883218413
H           -5.52453317483470       -0.41821418660354       -2.14608641758245
C           -5.61631297602121        0.42624505602467        0.09204657791770
H           -5.94362069083823        0.54783883591611        1.12957244155202
C           -5.49700930258556        1.80684614781583       -0.57137992879398
C           -6.65765794127164       -0.41886657183182       -0.60712153180570
H           -4.72715749855332        2.37087406034572       -0.03944029018045
H           -5.16590805962530        1.69912998802110       -1.60632004997479
C           -6.81234953092769        2.59547527290004       -0.56065738121652
O           -6.37528727535348       -0.78897670033657       -1.87147225248259
H           -7.58784751257816        1.98852433963910       -1.04135595950643
C           -7.27273970673545        2.93096196448089        0.85550097124229
C           -6.63336311990563        3.88031776263710       -1.36880900965669
H           -6.48849853829337        3.45816611582925        1.39521529690008
H           -8.15177729610415        3.56994317734755        0.81854751572992
H           -7.53561351889111        2.03281241676072        1.40688145565303
H           -6.33017005405752        3.65892369692708       -2.38988650594338
H           -7.56489366450791        4.43979071153781       -1.40392518291018
H           -5.87195801660516        4.51040605020625       -0.91346136293750
N           -7.71432560043469       -0.73666798460778       -0.00285390579369
H           -8.90248060957994       -0.44647559306992        1.34608363208741
C           -8.73826342539294       -1.53956838744168       -0.63409801777110
H           -8.90510897355509       -1.24662686432855       -1.67852676509628
C           -8.38527835266461       -3.03032050408325       -0.58867605686525
C          -10.03734553652419       -1.32437315189428        0.15548239747706
H           -8.16735501125739       -3.32801406247495        0.43490314605415
H           -9.22595714484445       -3.61013297683524       -0.95913493595086
H           -7.51157508491058       -3.22185455945660       -1.20651290911107
O           -9.85946414959928       -0.67531871626745        1.30018083119253
O          -11.10495871861411       -1.72213489982025       -0.21927887422755
