42
 energy: -62.486133514350 gnorm: 0.000479206776 xtb: 6.7.1 (edcfbbe)
N           -1.76941301826694       -1.03029798557291       -1.96255121579088
H           -1.13513539619824       -1.77743223233817       -2.21766666573821
H           -1.21077268856803       -0.20105572760953       -1.78034519194016
H           -3.41803599225096       -0.22101051824630       -2.54936452177841
C           -2.53952414096230       -1.38116327868776       -0.77063485902771
H           -2.93048575445148       -2.39509638551852       -0.92381735241590
C           -1.74609500754645       -1.34038523050159        0.53325886973051
C           -3.75626447055002       -0.45972903178395       -0.72171261554959
H           -1.34034875983037       -0.34356985328927        0.69291264663150
H           -2.40532330360790       -1.57695263466692        1.36073163870004
H           -0.92724425473178       -2.05688237710912        0.50470416958765
O           -4.08184032649520        0.08467253838803       -1.89848900807435
N           -4.33987321851002       -0.31042848907197        0.38235738154280
H           -7.40798415096062       -0.16246993795066        2.03806073006396
C           -5.55175601302531        0.44917378702668        0.57656417422789
H           -5.57135108243408        0.65570234502261        1.65730033241399
C           -5.65390949313280        1.77429832644091       -0.19769038606450
C           -6.73596148117059       -0.42513901333190        0.22613137065130
H           -4.73285163667710        2.33810987115858       -0.03449858962366
H           -5.72431386248524        1.52924173496222       -1.25649484364301
C           -6.86074829237605        2.62867557231328        0.20754431429308
O           -7.68605393233946       -0.59106787701150        1.21945843675352
H           -7.75450036744071        1.99447756630209        0.23142068299559
C           -6.67252731252336        3.27335643118742        1.58023893088324
C           -7.08916862183731        3.71405538787364       -0.84282233158729
H           -5.81033026045974        3.93681044393361        1.56708576748424
H           -7.54988696233185        3.85934043848660        1.84517503468936
H           -6.51595560542778        2.53181706656013        2.36072533776206
H           -7.28897282691031        3.26767909018460       -1.81351243448264
H           -7.93858059899654        4.33627554157325       -0.57033806121798
H           -6.21015412494718        4.34929623034498       -0.92883204074881
N           -6.80933879919652       -0.93158390761153       -0.91210033419261
H           -9.12756321033431       -0.47796534548901        0.12765906426115
C           -7.83762832722041       -1.79514456531401       -1.42776028262518
H           -7.46374610231135       -2.14273919631987       -2.39789805304082
C           -8.14902667646457       -3.01021664845411       -0.54304736897337
C           -9.14798462274808       -1.04353118912406       -1.70910977288260
H           -8.58008124002652       -2.71028295382937        0.40967880218837
H           -8.84938206299966       -3.66293634982372       -1.05830292899379
H           -7.22983000907867       -3.55845457557337       -0.34863078201087
O           -9.67237297277585       -0.38379075358355       -0.67644142765242
O           -9.68387429058992       -1.06568198793774       -2.78001136825102
