42
 energy: -62.486132246783 gnorm: 0.000632061812 xtb: 6.7.1 (edcfbbe)
N           -0.81300219123489       -0.04691620585773       -0.92964026336065
H           -0.07985268020959       -0.45730492429247       -1.49483524453432
H           -0.48466399913019       -0.02511069002103        0.03182185332940
H           -1.99017546015416        1.46316839256822       -0.97937695130497
C           -2.04513919477163       -0.82793133606039       -1.01878252333096
H           -2.22037084311572       -1.03680819526695       -2.08224545833086
C           -2.02101938641128       -2.14665245668866       -0.24873635842349
C           -3.18735176720206        0.08058149486863       -0.56901737631475
H           -1.89418021901015       -1.95926206002146        0.81573551744905
H           -2.95525126647267       -2.67654031351538       -0.40047864265206
H           -1.20057244948519       -2.77090372369556       -0.59755487145090
O           -2.92207350954917        1.39049493701557       -0.68559639833319
N           -4.24435393627635       -0.45228247710460       -0.15224864537191
H           -5.22517987896998       -2.03407375177624        0.79332234140339
C           -5.46279523764107        0.21285746153454        0.26590105901501
H           -5.37540550374324        0.40023461997394        1.34682581208391
C           -5.83028028900658        1.51434631330402       -0.45131691684569
C           -6.51130856758837       -0.87035694671481        0.07525716311397
H           -4.96076567081839        2.17032675747156       -0.46111740269125
H           -6.07889056252275        1.26469568101248       -1.48411595808686
C           -7.00284375853277        2.25906007475229        0.19945316546207
O           -6.17500888701643       -2.06628908622713        0.59213874194894
H           -7.78895151185328        1.53766111930156        0.43893297717105
C           -6.57030629764846        2.95910074461412        1.48658554978609
C           -7.56428486082138        3.28666908282299       -0.78172082168924
H           -5.78660751286992        3.68484833079225        1.27833575643803
H           -7.41263844179953        3.48367173693756        1.93182199067763
H           -6.19393987027386        2.24924519581773        2.21939884035670
H           -7.92695166948821        2.80437466195835       -1.68610588020520
H           -8.39113032841013        3.83068600041734       -0.33126883889959
H           -6.79393444372361        4.00346101887272       -1.05885800356229
N           -7.55256874656685       -0.65966775737387       -0.59751653605731
H           -8.48268894136492        0.38668083331564       -1.73480699905658
C           -8.52876066333921       -1.69404980115152       -0.84793026886048
H           -8.05527978575602       -2.64385164335782       -1.12792930549416
C           -9.42825670310164       -1.93141092547432        0.36992732953847
C           -9.40512555762257       -1.20814593602338       -2.01254166656192
H           -9.87874958105009       -0.99308824243676        0.68800504133909
H          -10.21519725893343       -2.63172465749383        0.10479312633152
H           -8.84022473912192       -2.33894857463008        1.18846548661802
O           -9.20540951986032        0.06618859942785       -2.32617397374751
O          -10.20469956993859       -1.90905919689761       -2.56787137981324
