42
 energy: -62.486133515649 gnorm: 0.000479499788 xtb: 6.7.1 (edcfbbe)
N           -1.03969553227674       -0.65731183857573       -0.72666619606084
H           -0.32966641053522       -1.36318683253725       -0.87955576758292
H           -0.70108093097572       -0.03747175791572        0.00434335668525
H           -2.14692863451787        0.51957519560832       -1.73435922379658
C           -2.30264719236211       -1.26663062043772       -0.31001171895977
H           -2.50140421446005       -2.10151284545768       -0.99485277426853
C           -2.32327577245830       -1.77893714339232        1.12668879915825
C           -3.39893323825050       -0.23318244649650       -0.55382440766112
H           -2.10382265355989       -0.96709089450363        1.81682918379814
H           -3.31079919016587       -2.16322586724659        1.35692820296228
H           -1.58606550836089       -2.56810008717853        1.25956825512500
O           -3.08871364071760        0.67022047547651       -1.51022518427928
N           -4.47045760031923       -0.33205894279038        0.08748842043942
H           -5.76186733216315       -0.17485228328120       -2.27941140692460
C           -5.62991399809342        0.52518035047664        0.01436669007267
H           -5.92311640467705        0.67443415304506        1.05903675514976
C           -5.49663388618981        1.88832176733499       -0.68022582240136
C           -6.71168066136219       -0.31773898234460       -0.62761623751134
H           -4.74874157345868        2.47241080895879       -0.13976045793484
H           -5.12648885915292        1.76126333582965       -1.70021514978237
C           -6.81709130836787        2.66775960672706       -0.73262514576765
O           -6.56208274244413       -0.59599416368702       -1.93811246702506
H           -7.55895425396947        2.06734205975861       -1.27213050003127
C           -7.36602138496226        2.96778034695782        0.65987402518793
C           -6.59954901079877        3.97063770755086       -1.50133976337323
H           -6.61466897466843        3.47097885698430        1.26501666446151
H           -8.23486120844906        3.61737581241648        0.58395623884423
H           -7.67300179757921        2.05630725891429        1.16513152700762
H           -6.22267817264356        3.77397384460422       -2.50279364647269
H           -7.53319420175230        4.52059832917781       -1.59029670954527
H           -5.87956253248980        4.59930420484494       -0.98155520328492
N           -7.66202838368903       -0.75169921560105        0.07249679648486
H           -8.65221021079246       -0.69349920183392        1.59440428155776
C           -8.70378349529015       -1.58493506868644       -0.48638843529725
H           -9.04134908328659       -1.21820648858938       -1.46391344364711
C           -8.24269736146272       -3.03895296692957       -0.63589544211759
C           -9.88631247066806       -1.55125857488805        0.49300127597706
H           -7.86584065007681       -3.40770115670762        0.31585244546776
H           -9.08346764139830       -3.65128226822972       -0.94956288767540
H           -7.45098659791960       -3.10131204003114       -1.37807613462143
O           -9.58775145572114       -0.99626694024603        1.66158259800279
O          -10.96616507907900       -2.00308126904252        0.23178367520577
