42
 energy: -62.486133499257 gnorm: 0.000481351651 xtb: 6.7.1 (edcfbbe)
N           -2.28461943459094       -1.28659770443534        1.69325797257621
H           -1.79656582633661       -0.45094288233811        1.99720259214060
H           -1.62193945197025       -2.05262016043882        1.68171796030196
H           -4.10683924648446       -1.06708607187659        2.28616544905418
C           -2.88060470930680       -1.09195057430989        0.37332039614163
H           -2.24378515626640       -0.54090266315692       -0.33167350597848
C           -3.25055596071542       -2.44980805473137       -0.22748602767865
C           -4.17465466120718       -0.32367220241637        0.56924701540132
H           -3.87767601402699       -3.00658609121683        0.46555643966061
H           -3.79511768275445       -2.30068422329781       -1.15486393510244
H           -2.35370720596895       -3.03029016900026       -0.43368538739243
O           -4.75425024186729       -0.54219525630751        1.76592503788504
N           -4.56204439795395        0.46611065574478       -0.32605223683842
H           -8.10903873970330        1.33478262277488       -1.26533844966586
C           -5.86479195923095        1.08382775416815       -0.34429645544522
H           -6.00667762660525        1.67224501003901        0.58004238489704
C           -5.91432201781131        2.02414237616162       -1.56262546398461
C           -6.99504640955032        0.06763423330423       -0.33231826212068
H           -4.87901806799683        2.21845721598051       -1.84517691371263
H           -6.37337402477197        1.50641437823463       -2.40955179809200
C           -6.61892061064756        3.36520479184339       -1.30307445217843
O           -8.16534345286235        0.44393011633606       -0.89786882969396
H           -7.52963944844309        3.20387069496065       -0.70978521776608
C           -5.70996880572066        4.30369892810706       -0.51196720405533
C           -7.01801550486317        4.01639727905972       -2.62652119167544
H           -4.82756932409781        4.55222539946022       -1.09710963514810
H           -6.23255690653135        5.22588705972280       -0.26800321310972
H           -5.38324989890424        3.84042212087803        0.41577868734937
H           -7.71083890994635        3.38776351213860       -3.18305949685275
H           -7.49757304595032        4.97619386315414       -2.44915509985781
H           -6.13765651823522        4.18255636775216       -3.24301796335391
N           -6.85023187438210       -1.05149190880569        0.21942301930503
H           -6.04905662016787       -1.97678872220533        1.61581154730896
C           -7.90441350119365       -2.03760969295833        0.24282924686356
H           -8.86485376246001       -1.59467933672749        0.54157398942124
C           -8.08112551936794       -2.71944796443205       -1.11721715706941
C           -7.52500392841637       -3.09808953881066        1.28726646968047
H           -7.12073239826564       -3.08837280475007       -1.47187276873567
H           -8.76554166807232       -3.55591067186646       -1.00743409116017
H           -8.48099716063064       -2.01473791911831       -1.84153416936171
O           -6.39642577475347       -2.84721013729403        1.93443088666475
O           -8.19184781033774       -4.07611553895533        1.49007513569366
