42
 energy: -62.486133523114 gnorm: 0.000478377633 xtb: 6.7.1 (edcfbbe)
N           -1.58804520584566       -0.20117044482541       -1.26324529925995
H           -0.57816674797651       -0.22810944716844       -1.17205013035229
H           -1.92524563256704        0.66487064303935       -0.85537264502909
H           -4.02495143678487       -2.92404856091203       -0.78195713979207
C           -2.18909261778056       -1.31411638092336       -0.55404676922032
H           -2.03133389580855       -2.21666874006563       -1.16488476090339
C           -1.61169397530312       -1.55804106004743        0.85204411220181
C           -3.67415167270657       -1.05519794962265       -0.41800085731543
H           -1.76292474115512       -0.67181055594064        1.46374076348346
H           -2.10332013237847       -2.40057553328581        1.33324688094119
H           -0.54616057880024       -1.76893620126676        0.78619369159639
O           -4.50579446048578       -2.11843669381198       -0.55652148537958
N           -4.04868623115589        0.10374596090792       -0.11442932412417
H           -5.29099531926988       -0.21250295623359       -2.28314438423723
C           -5.42064029427676        0.52986041856533        0.01401159361696
H           -5.68174196840860        0.47947429158521        1.07646926918338
C           -5.48838103846425        1.99486804732132       -0.45609339286557
C           -6.42879684763857       -0.29772542340863       -0.74717983196337
H           -4.72126368462298        2.54673518170979        0.08904575792618
H           -5.22601931493184        2.03272543555018       -1.51719795099527
C           -6.85234971157301        2.66201342064824       -0.25141337414262
O           -6.16406148578556       -0.55137906984789       -2.04455974114131
H           -7.62128874466400        2.04832976007711       -0.73227467192216
C           -7.19991256161358        2.79936110351805        1.22839609182351
C           -6.84678602307974        4.03820945450497       -0.91553476620884
H           -6.43229108189789        3.37035547852791        1.74675596063666
H           -8.14870065584220        3.31759342747772        1.34162813291168
H           -7.29256629936215        1.82649011814029        1.70262519967965
H           -6.63548435820147        3.95567840059322       -1.97934061074795
H           -7.81428273995091        4.51938245721862       -0.79698322904716
H           -6.08915379451045        4.67449117821512       -0.46283719387911
N           -7.51882587368759       -0.59697130777572       -0.19143027013909
H           -8.75149741906715       -0.27405690125368        1.10177110441434
C           -8.55685876637314       -1.30783167076780       -0.90439349070325
H           -8.66119934855717       -0.95426737346443       -1.93832491284047
C           -8.28362135392208       -2.81534205128205       -0.92202149884947
C           -9.87588892998075       -1.05821617902766       -0.16030245362818
H           -8.14521194363920       -3.17771628287827        0.09450332340413
H           -9.12666794116039       -3.32954393507619       -1.37451114571956
H           -7.38170047250891       -3.01701016158786       -1.49422257108079
O           -9.71623702584801       -0.45323161673705        1.01131581080197
O          -10.94419880081896       -1.39332919724359       -0.59054999316433
