42
 energy: -62.486132275451 gnorm: 0.000630809289 xtb: 6.7.1 (edcfbbe)
N           -1.25388911565971       -0.50199195078114       -1.46582081312131
H           -0.63061962681091       -1.14237659213922       -1.94286322799140
H           -0.76716789999826       -0.15810031741670       -0.64247735115344
H           -2.44765629887639        0.95127673300649       -1.88291500105473
C           -2.48729648081757       -1.17877603187359       -1.06347148869337
H           -2.86231675688839       -1.71837606490214       -1.94227808272910
C           -2.33282986806587       -2.15819846512053        0.09536567117541
C           -3.52516097369217       -0.10064266241766       -0.76351216191843
H           -1.92656395078967       -1.64847798226592        0.96644670831211
H           -3.30857283174733       -2.55340757129073        0.35321962416028
H           -1.66864726646702       -2.97497245334665       -0.18050483150560
O           -3.30111469095685        1.05741388273803       -1.41592667159488
N           -4.46532755080897       -0.38783944939228        0.01046207338218
H           -7.76410013512129        0.52764368011372        1.50209887015895
C           -5.59675851772893        0.40880703603911        0.39388712105383
H           -5.53239225219044        0.50431566943227        1.48865770401008
C           -5.69849173064866        1.80802102782158       -0.25298665231652
C           -6.82620628836550       -0.41334691176358        0.07100551996798
H           -4.75883280566573        2.32767770589907       -0.06084042764054
H           -5.77877342370531        1.65967828657028       -1.33104062111061
C           -6.85056948730453        2.70433809738495        0.21576967776691
O           -7.95365832218830       -0.13633273360697        0.82832973323407
H           -7.80768444989355        2.19464647727531        0.06049492139570
C           -6.71239072349821        3.09689135665881        1.68746067335520
C           -6.87021745293387        3.96832250792899       -0.64428641023387
H           -5.79025385719356        3.65461527274359        1.83727313273134
H           -7.54470896882341        3.72950987959891        1.98897840263749
H           -6.68983492036063        2.23428234460650        2.35226976236302
H           -7.01793172057396        3.71521656627575       -1.69102443285397
H           -7.67715115945668        4.62839901133506       -0.33400026895827
H           -5.92940095668301        4.50625970281231       -0.55077096692803
N           -6.77169793258967       -1.29571576520517       -0.80953885005161
H           -9.14178121901125       -0.29977114612621       -0.52652335159385
C           -7.82069493290617       -2.19047652247865       -1.22183541889743
H           -7.34180578310930       -2.89852705380608       -1.90805251629589
C           -8.47572384542546       -2.97164545501575       -0.07380536878395
C           -8.92201452226469       -1.48112200644633       -2.02465986264838
H           -9.02120040395786       -2.31294776929464        0.59843550648424
H           -9.16387497140322       -3.70705994639486       -0.48325186076276
H           -7.70442627495635       -3.48549809628015        0.49531551965518
O           -9.51472226560871       -0.45460634042887       -1.41499153399567
O           -9.25172861793445       -1.83913195873541       -3.11915733883250
