42
 energy: -62.486133492148 gnorm: 0.000481303831 xtb: 6.7.1 (edcfbbe)
N           -0.88321630318198       -0.36199656401469       -0.44963646427624
H           -0.12550345941677       -0.78441955793752       -0.97256555538528
H           -0.73016025694689       -0.57312118854995        0.53240065490794
H           -1.85507815855372        1.32222653028159       -0.34735072617858
C           -2.17484805389891       -0.89931346984781       -0.87679557061401
H           -2.19749365265175       -0.85151825470461       -1.97348876849319
C           -2.45651900129361       -2.33213362380421       -0.43298805748380
C           -3.24930475004645        0.06225671665422       -0.38866886555283
H           -2.39578543494278       -2.40819348471330        0.65100919255580
H           -3.45980455439481       -2.60713072580309       -0.73985426147454
H           -1.73851407185624       -3.01818667138167       -0.87768862888800
O           -2.82183565971362        1.32657600046127       -0.20175203073944
N           -4.41391456610766       -0.36418341447334       -0.19791883694499
H           -6.53200917231817       -0.56813370017391        2.13977345737588
C           -5.51940651327888        0.48518818672879        0.19184794863719
H           -5.33341398106193        0.88339951054304        1.20130372673799
C           -5.75739207432218        1.65185322747366       -0.77907120740152
C           -6.73174420777347       -0.42021725027789        0.20820554769661
H           -4.85703280543240        2.26543343998804       -0.81193339919975
H           -5.92281517137887        1.21170275990683       -1.76267412917142
C           -6.95758175757084        2.53017326245871       -0.41156513952426
O           -7.15598726159725       -0.84078168755777        1.45667335678128
H           -7.84213640160270        1.89350810659879       -0.30374461590368
C           -6.73368387147603        3.29102701082467        0.89416846637222
C           -7.21897477177442        3.51762849244587       -1.54724319452298
H           -5.82011720570366        3.87966621788156        0.83730040551875
H           -7.56587261235256        3.96572486894263        1.08165902796425
H           -6.65682698147736        2.61700982450192        1.74430331205494
H           -7.41244836918046        2.98621827666792       -2.47533204498371
H           -8.08292547443279        4.13835338602477       -1.32206801281891
H           -6.35703817225499        4.16590427545295       -1.69197078875526
N           -7.26330726357958       -0.76095513863425       -0.86835527956762
H           -8.93485287515564       -0.69801057849473        1.09149509373269
C           -8.37454197019543       -1.65768184361848       -1.04891997767701
H           -8.43188184906290       -1.83308796231689       -2.12943582074185
C           -8.23179239966428       -3.00577090141762       -0.32892218768959
C           -9.70971420786778       -1.01817658568540       -0.63851153075704
H           -8.25563617509777       -2.88695852801303        0.75212818004913
H           -9.04257622733987       -3.66458055241955       -0.62987944025188
H           -7.28296407580788       -3.45970839432405       -0.60588806002952
O           -9.77089687244169       -0.55499954901166        0.61038474058268
O          -10.64864261702674       -0.95661629219674       -1.37949543816148
