42
 energy: -62.486133502277 gnorm: 0.000481369288 xtb: 6.7.1 (edcfbbe)
N           -0.78707393121299       -0.56406225852836        0.25485273607778
H            0.12705686164738       -0.53073319200319       -0.17881058312265
H           -0.84407775600319       -1.43323726823390        0.77839090149561
H           -1.93063277845218        0.57229562202357        1.28668202508877
C           -1.85005863212136       -0.51349422455217       -0.74820264793789
H           -1.57687660866425        0.25596571199823       -1.48051331592366
C           -2.10499539146060       -1.83025005785001       -1.47829874707644
C           -3.10737664118834       -0.01212166588278       -0.05076827393003
H           -2.31434203493285       -2.62415440878727       -0.76335788027859
H           -2.96500056844368       -1.71725692321149       -2.12957021017818
H           -1.23712354724499       -2.11207200333572       -2.07054576333644
O           -2.89409096895966        0.61883434062427        1.11821984752152
N           -4.22867374365032       -0.18950975908449       -0.59228912955366
H           -5.07913336949642       -1.92083257007536        0.72302259314411
C           -5.44579058129220        0.32013762302435        0.01039158471556
H           -5.28351444049332        0.59515431765697        1.06552582806882
C           -5.92008251203829        1.54796215328471       -0.77437085243893
C           -6.44325499789290       -0.81685842845387       -0.02189774625141
H           -5.05912950331515        2.20216006282442       -0.92830273809859
H           -6.25930444655346        1.20458454431263       -1.75162231833811
C           -7.03325111338158        2.33427887219590       -0.07190405042973
O           -6.02445511059729       -1.97593164540052        0.53166816508721
H           -7.75034227317935        1.62163726679713        0.34490035033131
C           -6.47219668613637        3.19010033555543        1.06240260100694
C           -7.75727185028649        3.22394451523971       -1.08080800921397
H           -5.79151264157750        3.94187059210812        0.66756261587792
H           -7.27750997491019        3.70004628551180        1.58596955704590
H           -5.92963867307206        2.58547982181997        1.78477370262812
H           -8.21448330286265        2.63017681227119       -1.86826908197151
H           -8.53955856190951        3.79629908221645       -0.58803075304442
H           -7.05923856709546        3.92264103785808       -1.53753757361661
N           -7.57167338476868       -0.67674929513695       -0.55675833021878
H           -8.65288054263179        0.26491998866384       -1.64984038266664
C           -8.53440651151324       -1.75059829159660       -0.62668496181252
H           -8.06584077587013       -2.70109789182114       -0.91189900831523
C           -9.27106463007526       -1.94338282919146        0.70328301481549
C           -9.56342690710428       -1.35987171441738       -1.69958081764183
H           -9.71383294652002       -1.00229826827098        1.02361348382848
H          -10.05858221462867       -2.68009996632396        0.57245306979064
H           -8.57620697307799       -2.28699898936762        1.46542002956671
O           -9.43494481223694       -0.10868952067511       -2.12274990796462
O          -10.41039721799628       -2.11021364926076       -2.09758397354426
