42
 energy: -62.486132292434 gnorm: 0.000622363835 xtb: 6.7.1 (edcfbbe)
N           -1.58751332671323       -1.84266523583339        0.51459064297137
H           -0.62483573677309       -2.07043295735127        0.29662824917687
H           -2.11138727119572       -2.71376072121979        0.51910040824621
H           -2.65326560557273       -0.83575174257964        1.76272920423399
C           -2.14848967979033       -0.93853323030373       -0.49036643570013
H           -1.41843492291204       -0.13479327647437       -0.64860010737500
C           -2.47740168462828       -1.59215524827123       -1.82953247589190
C           -3.38300291975698       -0.29470524922717        0.11749633470909
H           -3.16887196921667       -2.41831804338957       -1.68198343240322
H           -2.95666085975589       -0.86268741341549       -2.47247158398473
H           -1.57304330042851       -1.96463107456821       -2.30663699483700
O           -3.44563979977654       -0.34311044977367        1.46879271318659
N           -4.24310865344035        0.24217874931153       -0.62263899102840
H           -6.30124044312165        0.06486700926220        2.07037657203081
C           -5.39553695940283        0.89209496929558       -0.03580302118534
H           -5.14256342069833        1.32835672154162        0.94293788722679
C           -5.86813533275209        1.97841210470532       -1.00893533183554
C           -6.48026582164061       -0.14492050571598        0.14177588212402
H           -5.04751556353928        2.68051450283569       -1.16447380720406
H           -6.07172649092779        1.47317219778489       -1.95231450048489
C           -7.11892511049512        2.73079753695567       -0.54484485334800
O           -6.88770950512720       -0.37674089605648        1.44333963952916
H           -7.88755278597500        1.99962787172762       -0.27025632062979
C           -6.83384610514610        3.62328714898597        0.66212987365892
C           -7.65977400469902        3.57478097849456       -1.69684049344552
H           -6.05650239225377        4.34584981581134        0.42170278579359
H           -7.73108332094516        4.16824331327515        0.94656573053933
H           -6.50866274430579        3.04451190493295        1.52339255291746
H           -7.91775761450299        2.94243852922644       -2.54213784268730
H           -8.55157746809510        4.11503037612866       -1.38825456770459
H           -6.91364191848277        4.29749606056738       -2.02024740760928
N           -6.91828959249788       -0.75667953356844       -0.85502533982131
H           -8.65616708198483       -0.51552246268916        1.02881613971311
C           -7.90561558916732       -1.80251203399873       -0.87190611177661
H           -7.90156810595705       -2.18714452650043       -1.89815956487541
C           -7.63079940557778       -2.96027117520987        0.09855852741378
C           -9.32401057414965       -1.27234890506624       -0.60855557129807
H           -7.70323828487320       -2.63947422266309        1.13539416418357
H           -8.35008722647941       -3.75633930367941       -0.07589096378824
H           -6.62820993205125       -3.34449337271505       -0.07596133246941
O           -9.48473011658808       -0.57969868505848        0.51880492944410
O          -10.23780261769265       -1.48599526314005       -1.35236002294927
