42
 energy: -62.486132275818 gnorm: 0.000625915478 xtb: 6.7.1 (edcfbbe)
N           -2.21185496592198       -2.48291719915564       -0.86715890282795
H           -1.25246315978787       -2.79759219732969       -0.94461221224749
H           -2.62883326554830       -2.53547969609570       -1.79259500400966
H           -3.80672227760774       -2.71316954335634        0.15566958504929
C           -2.27191570129677       -1.10461406730964       -0.38306787834738
H           -1.65024059278769       -1.05115297412911        0.52024447358276
C           -1.79512163520702       -0.05853489343976       -1.38743667742595
C           -3.71532741820158       -0.84663177546172        0.04831950532048
H           -2.39483810675591       -0.11316981110999       -2.29340649723231
H           -1.91379545501450        0.93064098025152       -0.95919825151136
H           -0.74939902912878       -0.22197203929074       -1.64117177592883
O           -4.38063457611505       -1.95823461312281        0.40019285455639
N           -4.10153733972499        0.34366537560195        0.13096813556939
H           -7.18755094631954        0.72808197737784        2.07655198687087
C           -5.42255380457360        0.84011065479138        0.39199881059942
H           -5.35784239615481        1.37420103987130        1.35216255796710
C           -5.73012110606150        1.85831409090560       -0.72734715291970
C           -6.55668423581050       -0.15644226524946        0.45150961649090
H           -4.86755272677196        2.51945076198230       -0.81791891720373
H           -5.81993946350396        1.28715097750840       -1.65230228490707
C           -7.00220820408510        2.68435580067914       -0.51038718163137
O           -7.45833143582928        0.00966532513002        1.49295499273569
H           -7.83366473035638        2.01041622736649       -0.27514765421975
C           -6.83955167620105        3.69222363581026        0.62664408666470
C           -7.35429977568253        3.42075358046175       -1.80177766951395
H           -6.02869420295528        4.38181097596432        0.40198485613927
H           -7.75360452633691        4.26811463929937        0.75287295971384
H           -6.61651140937629        3.20725108855738        1.57477816413612
H           -7.52658932221166        2.71365992176895       -2.60913346341418
H           -8.25653933092213        4.01295071916427       -1.66811681239294
H           -6.54447916503809        4.08669121459301       -2.09179515318473
N           -6.64167302089692       -1.04771416499937       -0.41806931118420
H           -8.94655223431197       -0.38044135735203        0.54070175507093
C           -7.62519845404303       -2.09318846481440       -0.51166517537823
H           -7.26406032071871       -2.75877744842653       -1.30436514441298
C           -7.80353834686573       -2.90239355691667        0.77976088033300
C           -8.99232867702478       -1.56659550122096       -0.96884894382657
H           -8.25648884814091       -2.30416120012554        1.56744117927537
H           -8.43418124344262       -3.76598952098094        0.58423127158037
H           -6.82694148052529       -3.23873189299922        1.11992629776940
O           -9.52656068422886       -0.60821065961086       -0.21094614693866
O           -9.55926597422688       -1.99542013344254       -1.93351092073521
