42
 energy: -62.486133522762 gnorm: 0.000479077174 xtb: 6.7.1 (edcfbbe)
N           -1.60267823076973       -0.66574237586425       -1.86619799682837
H           -0.96652555551180       -1.36710076770666       -2.22561224763966
H           -1.04814737850690        0.02486867307624       -1.36748956585009
H           -3.10348704732981        0.38211019498752       -2.45972228322867
C           -2.58170336541811       -1.26426249952812       -0.95904529784286
H           -2.98856775521171       -2.15228452729255       -1.45846846157219
C           -2.02594685167412       -1.66580529949255        0.40425162370142
C           -3.74725568397715       -0.28815417787901       -0.83152343467314
H           -1.59446320461765       -0.80042387193968        0.90353940511051
H           -2.83462417296685       -2.04708378339589        1.01721233888459
H           -1.25956728719057       -2.43082562539066        0.29445511280018
O           -3.86212519577574        0.55989137214194       -1.86743269092929
N           -4.49149033309859       -0.38359556168951        0.17296315977345
H           -7.94340829558086        0.63703532044281        1.26877215012065
C           -5.67317136248914        0.38989908714064        0.44618098415666
H           -5.69290209708768        0.48754339149278        1.54225792244308
C           -5.71436921961906        1.79280087573527       -0.20000163305131
C           -6.87276412137481       -0.43775051008422        0.04351868870284
H           -4.73337450347269        2.24377989586908       -0.03359017157404
H           -5.83737111217360        1.66394876651330       -1.27578953087886
C           -6.78463313444892        2.76672215546183        0.30864130228330
O           -8.07441960061143       -0.07234455199236        0.62826377089878
H           -7.78272491758420        2.36010699374063        0.10946110486595
C           -6.64449904262555        3.06788826085634        1.80129402820021
C           -6.66911022683572        4.07092671675203       -0.48200714232455
H           -5.65773679455885        3.47719285571763        2.00719979647884
H           -7.38746597926545        3.80182104868618        2.10682402754843
H           -6.77543801438589        2.18364714201672        2.42335318678417
H           -6.78778798277768        3.88454227583498       -1.54633973177143
H           -7.43625317497838        4.77587722973896       -0.16935733051197
H           -5.69557289111298        4.52836004054838       -0.32019440496443
N           -6.73475845188741       -1.40365591794807       -0.73500205954627
H           -9.08274081915427       -0.33279311747695       -0.85494621772412
C           -7.75196387436614       -2.31367769874134       -1.19131098340891
H           -7.21395919187413       -3.09480591563887       -1.74088485698703
C           -8.57110271608783       -2.96570657217060       -0.06853900558870
C           -8.71894852413696       -1.66261334207394       -2.19217038301951
H           -9.17142802731014       -2.23294208886710        0.46623070453799
H           -9.22932705401339       -3.71996521735877       -0.49261415334385
H           -7.89479839535024       -3.44158690068707        0.63795771622232
O           -9.34792216494370       -0.56853027356940       -1.76394223312466
O           -8.91965751493348       -2.11933763050795       -3.28126004451211
