42
 energy: -62.486133504784 gnorm: 0.000481306257 xtb: 6.7.1 (edcfbbe)
N           -1.18252449892384       -1.36395544892093        0.81961850897484
H           -0.37586347104581       -0.84623970988857        1.14165399149302
H           -0.88070168595794       -2.29508729193879        0.56159471863005
H           -2.78053735601455       -1.21899367757139        1.74607246166316
C           -1.86151865064741       -0.69749452774105       -0.29454389797156
H           -1.36117646084551        0.23785021048182       -0.56584707408618
C           -1.95291257134317       -1.58301551862654       -1.53705053443435
C           -3.26894837371801       -0.33522640339148        0.17928478016218
H           -2.44638548575751       -2.52426059327070       -1.29588186951717
H           -2.52206235458578       -1.06910503354882       -2.30625669522768
H           -0.95859226308986       -1.79888043919620       -1.92294331216639
O           -3.59031937847978       -0.77592078828354        1.40090585785537
N           -4.01335516554682        0.34716249500742       -0.57824316709882
H           -4.81503108685173       -1.54704505098504       -0.95537490120078
C           -5.36660059761933        0.67784448981654       -0.17711762565237
H           -5.39534703876788        0.97028230399367        0.88153869292074
C           -5.76442018706001        1.86889037337126       -1.06819245438652
C           -6.28888015791560       -0.52133140907979       -0.32477335795366
H           -5.01801875033168        2.64449272578668       -0.88422356772909
H           -5.64982021063620        1.54865329415742       -2.10521716645101
C           -7.15970125589111        2.46404045000582       -0.87711145852064
O           -5.74593897465110       -1.68750024260726       -0.72348088289796
H           -7.89869252007869        1.72187620209734       -1.18607967932269
C           -7.42398672957459        2.85477044840442        0.57429477997434
C           -7.30831230742527        3.68669653826403       -1.78215354185605
H           -6.68162600105934        3.57417368914703        0.91414992125507
H           -8.40731110196261        3.30940711981199        0.66618032617612
H           -7.38747617995539        1.98459804328646        1.22363704631533
H           -7.11886844083784        3.42375935923032       -2.82003231217023
H           -8.31565807882555        4.08852241636093       -1.70979773848596
H           -6.60608483726915        4.46566233408707       -1.49189066146020
N           -7.53006980655727       -0.37673169180145       -0.15699220023353
H           -9.04186404909794        0.63367689933909        0.25750596462157
C           -8.43950104400265       -1.48832866651066       -0.32859772202968
H           -8.23259051742683       -2.04695347523453       -1.25013028134123
C           -8.38312308158179       -2.45666909696451        0.85992733431614
C           -9.86091786845557       -0.91715468672626       -0.39363103873038
H           -8.56738737430976       -1.91739088507240        1.78738544112642
H           -9.14274622247645       -3.22358148266977        0.73659682779574
H           -7.40254865224157       -2.92295555493056        0.91041095468431
O           -9.95453436244923        0.32988055239332        0.05295653787556
O          -10.80423610809095       -1.55044411716749       -0.77921591413033
