42
 energy: -62.486132304863 gnorm: 0.000620552666 xtb: 6.7.1 (edcfbbe)
N           -1.85759720291767       -0.89211772698655        1.30083298125160
H           -1.24540864195699       -0.12143808652386        1.05416079401036
H           -1.28030028707198       -1.70469242842174        1.48103672094414
H           -3.35058499802827       -0.02688411715279        2.14853538989620
C           -2.81597151378876       -1.16257863743923        0.22991958182537
H           -2.39820362550241       -1.04414387822585       -0.77930693081566
C           -3.37717120403369       -2.57826879633446        0.37347977859163
C           -3.96613526941617       -0.18394778189336        0.39223318760108
H           -3.79371833626060       -2.72193532163098        1.36782786217628
H           -4.16071202985289       -2.73017060873461       -0.36207362389887
H           -2.59234070308417       -3.31428550019872        0.21125522061671
O           -4.10633948342816        0.31946980126434        1.62967846838171
N           -4.72315336889328        0.03828613758335       -0.58641310739814
H           -7.97057498648511        1.21277359052701       -1.76720725709956
C           -5.87303700081937        0.90693664804332       -0.44874374540645
H           -5.90172558257715        1.37372717691093        0.54777258564165
C           -5.80181567711131        1.99530327565672       -1.52905553516341
C           -7.09416837410834        0.00932445509942       -0.55489788351700
H           -4.75238191718839        2.27626656747659       -1.63689162991068
H           -6.10193771352875        1.56915508653914       -2.49089583506820
C           -6.62010042865025        3.25430495110023       -1.19825257054372
O           -8.13881501145382        0.37269136562532       -1.32157631740318
H           -7.56781110080449        2.97015426943286       -0.72298516318516
C           -5.86025614639989        4.14467149028602       -0.21660184081407
C           -6.93182586332592        4.03373861678401       -2.47556851568445
H           -4.94197415040796        4.50938335696475       -0.67200829500415
H           -6.46631832262920        5.00185148224307        0.06751400766097
H           -5.60058295785559        3.59681737440947        0.68585904535430
H           -7.52233272113066        3.43913366284250       -3.17065606935307
H           -7.49094139418047        4.93686267600345       -2.24262753862256
H           -6.00892348970615        4.32242196150848       -2.97367534663540
N           -7.06997920522886       -1.05833053189626        0.11117278612909
H           -6.25970887730783       -1.99420074175259        1.37140700823506
C           -8.13589594304118       -2.02857196675074        0.12410614541671
H           -9.10542936751387       -1.56284798964868        0.34470981281791
C           -8.24650849827360       -2.79663961850993       -1.19674401393224
C           -7.80308868775666       -3.02367492509674        1.25005332555186
H           -7.27730248091078       -3.21313766840374       -1.46356156959100
H           -8.96265710850404       -3.60507483506679       -1.08013068485690
H           -8.57600058302879       -2.13019095663781       -1.98930093689616
O           -6.62552341477523       -2.79882161467285        1.81904282449323
O           -8.53093761551715       -3.92334607979276        1.56751217335624
