42
 energy: -62.486133509098 gnorm: 0.000480235501 xtb: 6.7.1 (edcfbbe)
N           -1.12844336334152       -0.55417991508337       -1.35225799822690
H           -0.51046456051434       -1.21462788194039       -1.80841563652396
H           -0.65787266552144       -0.22305027286408       -0.51417337984889
H           -2.25626558119902        0.93802794811148       -1.81165045566508
C           -2.39494474598584       -1.19048323589214       -0.98905777730162
H           -2.75237167608165       -1.73069540003906       -1.87523529360304
C           -2.31275112558927       -2.15936247044394        0.18678183337048
C           -3.41104424160999       -0.07932610195285       -0.73842125857877
H           -1.92899656009743       -1.64906358949793        1.06809156219885
H           -3.30794990840602       -2.52744992444871        0.40964729574711
H           -1.65904231246636       -2.99596793300803       -0.05228730093460
O           -3.12319069585799        1.07118280490653       -1.37722292311574
N           -4.39279133806223       -0.33196309320321       -0.00387324250258
H           -7.39590424120619        0.51739215264891        1.87269380328697
C           -5.50427119971597        0.51915663315338        0.32293675288055
H           -5.35122780364015        0.83285987385932        1.36690030157890
C           -5.72185589457381        1.75642646133956       -0.57197348943938
C           -6.73836115013344       -0.35537638827127        0.25429948639509
H           -4.82426230032772        2.37379479846668       -0.53570906487128
H           -5.83822734108478        1.39038731417003       -1.59340932889305
C           -6.93436990874175        2.61897047591833       -0.20251434597552
O           -7.68917718074963       -0.15123994489624        1.24232178990914
H           -7.82665056278930        1.98787330772708       -0.12902548823747
C           -6.72688986628152        3.35527020946327        1.12128983059241
C           -7.18439907602160        3.63546591976113       -1.31566173496904
H           -5.87958923405091        4.03321283806775        1.04134630800596
H           -7.60949303632852        3.94072531912603        1.36978088722964
H           -6.53293991104350        2.67436807144191        1.94850701258595
H           -7.39369156536235        3.12861437807393       -2.25415157356587
H           -8.03533437784189        4.26708541469462       -1.07076020598322
H           -6.31160303402286        4.26999200540800       -1.45360935356077
N           -6.84891611451033       -1.18838007010745       -0.66782378292145
H           -9.14098156940476       -0.32375707859589        0.18133298641626
C           -7.93220455214705       -2.10908458614212       -0.89359219860243
H           -7.59115442940704       -2.76258736948037       -1.70491443635990
C           -8.29541360775092       -2.96952758598991        0.32436570013522
C           -9.20143648166938       -1.40842552719885       -1.40261007078482
H           -8.69796038686927       -2.36605908848942        1.13498934912299
H           -9.03474118191718       -3.71265561786434        0.03593987553804
H           -7.40245086776619       -3.47696654625224        0.68207251131234
O           -9.68657707084241       -0.44516086010739       -0.61907219115541
O           -9.73997853144803       -1.71744107887938       -2.42693957010421
