42
 energy: -62.486123799908 gnorm: 0.000707955089 xtb: 6.7.1 (edcfbbe)
N           -1.04554954367206       -0.51007076355027       -1.19162127831526
H           -0.41585468124416       -1.14656314255542       -1.66498532828720
H           -0.59634961914597       -0.22057967358999       -0.32693504284325
H           -2.13050828593165        1.02146377149076       -1.56347003864964
C           -2.32094516656037       -1.16117058865938       -0.89408199778594
H           -2.64531979320082       -1.67562571432084       -1.80734853520527
C           -2.27062348525008       -2.16426705288659        0.25522536542601
C           -3.35020877469751       -0.06194608347056       -0.63873326465058
H           -1.92054017666093       -1.67675402495044        1.16317097705238
H           -3.26829343514916       -2.54891406476050        0.43495264068554
H           -1.60122103506962       -2.98796644391493        0.01474557091768
O           -3.01681329450269        1.13103932722603       -1.16150934275310
N           -4.38637505547288       -0.36127291216264       -0.00021717709105
H           -6.96706411155889       -0.21968851360215        2.14477550009144
C           -5.50141082032280        0.49900023254247        0.31062083196509
H           -5.36354339137299        0.81603302614006        1.35579197493725
C           -5.71554086786571        1.73315239993421       -0.57977162156502
C           -6.72693301910553       -0.38871583807008        0.21753486938205
H           -4.83412667163215        2.37148046199755       -0.52701452652647
H           -5.81895424250287        1.37014122582518       -1.60298247302956
C           -6.95712509591485        2.55086133088395       -0.20515670012085
O           -7.42797151845997       -0.60543449037167        1.39047686782531
H           -7.82314327067886        1.88201014693831       -0.14591290767888
C           -6.78886814955250        3.26259202680079        1.13660754251166
C           -7.23182315916946        3.57868643799843       -1.30103454107279
H           -5.92063302852504        3.91804075627562        1.10876486491390
H           -7.66681519123839        3.86696319353771        1.35337571595494
H           -6.65965413189026        2.55931824608466        1.95658448851136
H           -7.40616694287751        3.08239805782036       -2.25212973312882
H           -8.11117498278847        4.17052759611107       -1.05772255568830
H           -6.38315641042279        4.25046497744768       -1.41183350219075
N           -7.03565724545124       -0.87838192097958       -0.88870849004273
H           -9.08083567673598       -0.51098206142954        0.65212745476848
C           -8.13257780037041       -1.76421439902123       -1.17860388237281
H           -7.97544516541667       -2.08973095148769       -2.21348985133034
C           -8.21114025841181       -2.99940953679483       -0.27096532728934
C           -9.48823761266110       -1.04174912947451       -1.15023621891499
H           -8.43677213991202       -2.72664858929411        0.75756452551380
H           -8.98547347309035       -3.66895007476080       -0.63720549837869
H           -7.25507968311411       -3.51756394574833       -0.28943172252298
O           -9.78872597883949       -0.41496558936060       -0.01253758536969
O          -10.24353888272646       -1.05463340207952       -2.07974487865267
