42
 energy: -62.486133515473 gnorm: 0.000479649513 xtb: 6.7.1 (edcfbbe)
N           -0.72372701652303       -0.15961552732873       -0.26584529956470
H            0.08788455842484       -0.55221233436458       -0.72682111195852
H           -0.58630204638605       -0.26100806610329        0.73613997217526
H           -1.79686952319702        1.40876724830696       -0.29197042633942
C           -1.94619410655418       -0.85139595411489       -0.67050886731741
H           -1.91627596628060       -0.94848162524782       -1.76420074112174
C           -2.12811741820617       -2.23302491255677       -0.04498469885076
C           -3.11556788777672        0.07782979645538       -0.34755665200332
H           -2.14805759764563       -2.15103691627901        1.04010557872773
H           -3.06776085605574       -2.66802740019687       -0.36891395036581
H           -1.31089690753187       -2.89016546671156       -0.33608450736639
O           -2.77307683892137        1.36583507237145       -0.20923332368522
N           -4.26139955952395       -0.42286072771829       -0.22284923917409
H           -5.22798824520690       -1.40467279672346       -1.58070620818177
C           -5.50539405533938        0.28370153439575       -0.01446243773762
H           -5.65718740857737        0.41910555267102        1.06039970977603
C           -5.60510200970793        1.64837675068520       -0.72582363981634
C           -6.58381300904839       -0.63885500839962       -0.55199923747067
H           -4.81082426269488        2.29036246747769       -0.34496489740690
H           -5.42167103281710        1.48555476585079       -1.79229671107263
C           -6.94648733200077        2.36716630298026       -0.55247204290754
O           -6.20136009367173       -1.46118078991950       -1.53946102285825
H           -7.74987903138662        1.71483243536836       -0.90652671574356
C           -7.21409292369393        2.72240838749059        0.90767914306134
C           -6.94781774293874        3.63603279593133       -1.40431778136751
H           -6.41919733969557        3.35753336346064        1.29429062847166
H           -8.15557658512289        3.25900168284105        0.99441832085713
H           -7.27733017113794        1.82963658234665        1.52366950408200
H           -6.78292586324292        3.39919436633681       -2.45305920218510
H           -7.90277765197745        4.14806354638062       -1.31665764900788
H           -6.16241171862661        4.31476830019223       -1.07768931987432
N           -7.74187877646906       -0.60985520060357       -0.05531887199485
H           -9.03249516947556        0.35096442473072        0.79905061032876
C           -8.80294457710212       -1.45322216165654       -0.56187168280919
H           -8.76408789715468       -1.55472317299469       -1.65390602184202
C           -8.75137084670733       -2.84995200122936        0.06647807094753
C          -10.13572780086687       -0.79562929517878       -0.17527423052388
H           -8.74743303883957       -2.76833300706694        1.15149518069707
H           -9.62416490869581       -3.41631202393614       -0.24598041737648
H           -7.84965294879111       -3.36607853731839       -0.25352262617704
O          -10.00052562442607        0.23185576810087        0.65457866655076
O          -11.19771202795658       -1.18637406936805       -0.57409083749200
