42
 energy: -62.486133508937 gnorm: 0.000480468650 xtb: 6.7.1 (edcfbbe)
N           -1.24066681392244       -0.41355378550537       -0.43166111208325
H           -0.78428421943272        0.34306011614664       -0.92238796505488
H           -0.88741464639273       -1.29213368474113       -0.80051624831240
H           -1.48579289670506       -0.74822598180556        1.31166360534618
C           -2.70697863898874       -0.34226704949043       -0.54007027242713
H           -2.99547942912675        0.59555861568703       -1.02547942302439
C           -3.24968805548799       -1.52673572115440       -1.34283762831282
C           -3.24964931324924       -0.29400710261809        0.92420728666778
H           -3.05863874955266       -2.46102850977702       -0.81406074984712
H           -4.31708785202267       -1.43314693997898       -1.51446846367606
H           -2.75755202683673       -1.56894479259993       -2.31433411691598
O           -2.33544011337478       -0.69860915059686        1.81011735910105
N           -4.30702472152975        0.19637419054017        1.40482541144906
H           -4.89276810805058       -1.80781903284171        0.93498699568033
C           -5.57630521903992        0.50265573346721        0.80174077534298
H           -6.20141983744465        0.82728606477545        1.64370949382593
C           -5.45533493175177        1.67135362097623       -0.20327334933072
C           -6.25928927909364       -0.71206125028634        0.19114365964957
H           -4.75849591479463        2.38533882499438        0.24194120554564
H           -5.01280312685238        1.29208451364012       -1.12672403401157
C           -6.74158004945173        2.41675628816283       -0.57652445832170
O           -5.66543686105776       -1.90567592820580        0.35277839092761
H           -7.40116681646023        1.72476089049520       -1.10631966824502
C           -7.47675163744382        2.97641466439838        0.63698340413883
C           -6.37314129599846        3.55432964677840       -1.52737067256612
H           -6.81985527929379        3.61883835292826        1.21885521724472
H           -8.32793659580484        3.56581843548514        0.30734365618682
H           -7.84854507678111        2.18437064370358        1.27990303429545
H           -5.84555451791725        3.17414497987064       -2.39908614325441
H           -7.26424678496337        4.07125431278169       -1.86993741489474
H           -5.73062966590357        4.27648541143623       -1.02531210473198
N           -7.40918436487269       -0.56516094743736       -0.30401551485713
H           -8.90319783169910        0.48280667977968       -0.36995028935740
C           -8.20169272013183       -1.63514596428442       -0.86672425874491
H           -7.75482698577792       -1.97158628089188       -1.81194500787288
C           -8.41296916334723       -2.85731420877187        0.03420095818253
C           -9.58678220584595       -1.04256526739306       -1.19781465531666
H           -8.72605215528167       -2.54166092005502        1.02840969095386
H           -9.19338475076120       -3.47289241291977       -0.40465689954603
H           -7.49793670973189       -3.43842915381834        0.11782711113712
O           -9.75759819022560        0.20302446260661       -0.77589249583501
O          -10.43563464918575       -1.66756210981503       -1.77086513524675
