42
 energy: -62.486133512117 gnorm: 0.000479447288 xtb: 6.7.1 (edcfbbe)
N           -2.47223372899889       -1.81224720295681        1.57026940996633
H           -1.52867958299642       -2.16859658355393        1.65787411697853
H           -3.10564116749585       -2.60670894536007        1.60072977652833
H           -3.68074057312830       -0.52126647315452        2.30450587668347
C           -2.64636388236418       -1.08435598530705        0.31572838290883
H           -1.80113306583068       -0.39072122082467        0.21960768041109
C           -2.71869171716706       -1.96466994249646       -0.93056380489376
C           -3.90074920746040       -0.23625255672454        0.46357364238982
H           -3.53715523233432       -2.67546371086765       -0.83742388726572
H           -2.90226816184747       -1.34284621042747       -1.79988022501963
H           -1.78782705525185       -2.51181537199897       -1.06606019702344
O           -4.29224037394731       -0.01758722288445        1.72864512851037
N           -4.49020644753904        0.19544526029003       -0.56174379181927
H           -6.85927427270406        0.41183128041717       -2.49025466367836
C           -5.68632196359367        1.00986385646954       -0.41091095538991
H           -5.77147374694704        1.39634826389260        0.61061142812322
C           -5.63385356174363        2.15925558691288       -1.41866205025193
C           -6.81760500419018        0.02147269883024       -0.62275266904767
H           -4.76955018966956        2.77623839396265       -1.16392681455094
H           -5.43588211077102        1.75512010383311       -2.41689090287053
C           -6.89137911155631        3.03858968271021       -1.43714078626064
O           -7.32237121813800       -0.15075712709393       -1.85593392417312
H           -7.77760316157194        2.40792259036986       -1.57231189832257
C           -7.05323066780761        3.80605884197899       -0.12685633399533
C           -6.81287876015107        4.01668774949108       -2.60895581839838
H           -6.17015133156394        4.40981630273128        0.07114075729670
H           -7.91447906430961        4.46774518368999       -0.18429878510389
H           -7.20455714627434        3.12776204463868        0.70846725639465
H           -6.72941830611277        3.48826264459734       -3.55661305728581
H           -7.70330317064974        4.63957840292819       -2.64455636849974
H           -5.94593796465683        4.66493288171154       -2.50131428565354
N           -7.14202791075743       -0.65786075254813        0.38527997043816
H           -6.57512689228125       -1.10740630632456        2.01817580397039
C           -8.06663215492323       -1.76097478776241        0.41804179951692
H           -9.09831742707127       -1.38706075147386        0.38452934977784
C           -7.88016671489156       -2.80856249501579       -0.68307685308243
C           -7.86498282897587       -2.44069091010430        1.78890690531309
H           -6.83426188652292       -3.10618722912196       -0.73511769000174
H           -8.48469411633743       -3.67903517011258       -0.44277284103372
H           -8.18076352880945       -2.41121470005489       -1.64793811927630
O           -6.92240126554967       -1.87975782450313        2.53311785155197
O           -8.49361557650097       -3.40291809486577        2.13568674568833
