42
 energy: -62.486133503819 gnorm: 0.000481079494 xtb: 6.7.1 (edcfbbe)
N           -1.50134065071072       -1.67382750773853        0.59030869693484
H           -0.53925597485167       -1.88933744245720        0.35842144466586
H           -1.98915700612802       -2.55739526720387        0.71413932229123
H           -2.53587779661765       -0.56072240596605        1.76435062940822
C           -2.13717130482919       -0.90651401082822       -0.48172822650423
H           -1.44273306572707       -0.10524772966104       -0.76563065940554
C           -2.50514864777647       -1.71843993895752       -1.72121729273483
C           -3.36304539829537       -0.23149434479493        0.11037045676709
H           -3.15561405777698       -2.54647683820465       -1.44596926486427
H           -3.04261258600987       -1.08277505831521       -2.41637793554787
H           -1.61096335143691       -2.11248444804083       -2.20000343878636
O           -3.35922118439499       -0.12793880543016        1.46072983054855
N           -4.27621623307897        0.18975124508607       -0.64126739537954
H           -6.12862476418913       -0.02625629379587        2.05646952079585
C           -5.41724289410385        0.88062539444291       -0.07781908750677
H           -5.15822279577995        1.35831908456229        0.87929017782922
C           -5.88724803355742        1.92463784459404       -1.09622721338567
C           -6.49855528313349       -0.15017840009962        0.14778481491818
H           -5.06118309031523        2.60979143395673       -1.29329445157218
H           -6.10895297020387        1.37850994559098       -2.01221209155706
C           -7.12444259748462        2.71136888950068       -0.65321465362756
O           -6.77047374627113       -0.44947252634091        1.47171531906408
H           -7.90055543651162        2.00006787227286       -0.34981898695795
C           -6.82198518951005        3.64159997018049        0.52047083682644
C           -7.65883494345493        3.52191356496568       -1.83204077823409
H           -6.03185327453011        4.34088693266488        0.25428982351125
H           -7.70917031787014        4.21233590358262        0.78508103515712
H           -6.50762832043531        3.08798487547957        1.40201989965996
H           -7.91894280628570        2.86485781192630       -2.65762669733368
H           -8.54816412425533        4.07628318469274       -1.54177803503226
H           -6.90835237298160        4.23042470371875       -2.17640264921324
N           -7.03103712469825       -0.71568083811087       -0.82954775139341
H           -8.56496939448576       -0.58579778556384        1.23750288174382
C           -8.02035305837883       -1.75928262914222       -0.80435123938810
H           -8.12559261867503       -2.08296244792545       -1.84629651584172
C           -7.64799085936822       -2.97107396365964        0.06185244630807
C           -9.40176609482005       -1.25028520014710       -0.36277298896928
H           -7.60296726658224       -2.70950930559129        1.11687793673450
H           -8.38772553986090       -3.75559495647061       -0.07660369805204
H           -6.67363529256958       -3.34476407742496       -0.24529385254279
O           -9.44286786927611       -0.62645972337780        0.81429007396097
O          -10.38849592371449       -1.42141240703975       -1.01953507632942
