42
 energy: -62.486132256651 gnorm: 0.000628934142 xtb: 6.7.1 (edcfbbe)
N           -1.77624845781477       -1.48315397074103       -1.04280624756522
H           -1.13974151656406       -2.26132417388845       -0.92134610869349
H           -1.21424328268274       -0.64240185762328       -1.14658041118860
H           -3.31170953066091       -1.04224600654556       -2.06710776122029
C           -2.66394416395517       -1.34577994510556        0.11244587117465
H           -3.02968659662681       -2.34880001144268        0.36642872992146
C           -2.01838087777567       -0.71833054337778        1.34465879187687
C           -3.87931028711728       -0.55117988775247       -0.34324829401225
H           -1.61800045081695        0.26329818851519        1.09859483610512
H           -2.76904640041422       -0.59734439892378        2.11782371864135
H           -1.21200191083674       -1.34779093584370        1.71523192749556
O           -4.06817674867339       -0.55045163269889       -1.68380598358723
N           -4.60492971412920        0.01255776868367        0.51099878748903
H           -6.05114116373071        0.14217493940861       -2.21339684739893
C           -5.81154117750168        0.74816488447347        0.17581416655028
H           -6.23450060299064        1.02395139295137        1.14745695726103
C           -5.51384529818981        2.01707400160658       -0.63385002621154
C           -6.80892734828317       -0.18051739264406       -0.48784864515210
H           -4.82277074084282        2.62377407947646       -0.04383297504294
H           -4.99272128485113        1.75159568734445       -1.55873055274974
C           -6.75745088157685        2.84880275433229       -0.97106741749620
O           -6.82100570398426       -0.29751548662213       -1.82620892426218
H           -7.48162877295748        2.21742598608297       -1.49780214617712
C           -7.42724493031233        3.39836420130678        0.28603562274375
C           -6.35841841446009        3.99772713745618       -1.89695130897704
H           -6.71462684319525        3.96790769145919        0.87893431474645
H           -8.24863942181732        4.05673854077358        0.01294694257981
H           -7.82902355503396        2.59643968239085        0.89939229681341
H           -5.90485072044329        3.62243953151715       -2.81220780131074
H           -7.23005143603732        4.58847865613522       -2.16737453257787
H           -5.64262073652204        4.65063094053931       -1.40171061511864
N           -7.55377716888778       -0.86432138566780        0.26590695259776
H           -8.26861796718463       -1.18377053600247        1.89722495262987
C           -8.48604998031116       -1.83646411003597       -0.26021226103595
H           -9.06541043020333       -1.43216834903980       -1.09975404812629
C           -7.77776866123496       -3.11615955796600       -0.71951683700356
C           -9.45231685548567       -2.19897957146375        0.87731655111708
H           -7.15783219674041       -3.50428470578255        0.08650331827286
H           -8.52206185490336       -3.86048563612159       -0.98812811163618
H           -7.14956432902459       -2.90445810973760       -1.58108486283635
O           -9.08598044757772       -1.71293800590150        2.05655096010901
O          -10.43035435470240       -2.87481317268167        0.71448899726528
