42
 energy: -62.486133510017 gnorm: 0.000479933269 xtb: 6.7.1 (edcfbbe)
N           -2.37264804091832       -0.61964396744715        1.91526942951611
H           -2.15180093221141        0.23492834673111        2.41524721410627
H           -1.52382615585462       -1.16647668477102        1.83539729793443
H           -4.21409578042767       -0.99105679522464        2.36062302592018
C           -2.92960556331846       -0.32542073157210        0.59694559528686
H           -2.44130969175073        0.51183236953885        0.07975593816080
C           -2.85585007518575       -1.57509331950412       -0.28264572383926
C           -4.39839300248148        0.01521280611705        0.79015275304312
H           -3.31166811702156       -2.42114268589726        0.22703725717554
H           -3.38389400064781       -1.39619576939126       -1.21418933664504
H           -1.81916012379371       -1.81807689531291       -0.50661521678127
O           -4.94959305970743       -0.55509913956544        1.87752652833970
N           -4.94479130383298        0.79891133108162       -0.02221625948195
H           -8.72393996183696        1.27750717876259        0.18029092143558
C           -6.34688115458712        1.10527948945629       -0.09342366067315
H           -6.57301797068939        1.87386001279321        0.66724015372229
C           -6.62838509053540        1.69196059136494       -1.49479712729256
C           -7.30922283866513       -0.03566992981682        0.16289262465770
H           -5.99011484291079        1.16093144944580       -2.20146729865328
H           -7.66757183607605        1.50010404318270       -1.77516680501052
C           -6.35960376895495        3.19718595163477       -1.59855510195853
O           -8.61744554286936        0.32014389573672        0.24045139107149
H           -6.88765149839917        3.70513373219724       -0.78098082301264
C           -4.87003237028920        3.50077570842522       -1.47744419178750
C           -6.90212292218999        3.73096524968020       -2.92329913779936
H           -4.33402505097357        3.07647501578370       -2.32258095259522
H           -4.70029638694154        4.57514818385323       -1.46251391304178
H           -4.46616795782321        3.06281692421946       -0.56997428060814
H           -7.97520587061501        3.56766358481037       -3.00157960371952
H           -6.71249869792649        4.79831650129126       -3.00784947753093
H           -6.41747022629683        3.22985653460714       -3.75804570908276
N           -6.92493842591373       -1.22339844854044        0.29089585388590
H           -5.63985616555198       -2.29341301245635        1.01643857136447
C           -7.85273866260233       -2.31229176014646        0.49352086041299
H           -8.61273514607419       -2.05912256639055        1.24567514461736
C           -8.55956761240913       -2.70600293133467       -0.80638525480405
C           -7.05015352473619       -3.51379768449257        1.01575099465786
H           -7.82351370536160       -2.87112071678530       -1.59049018421902
H           -9.11665729857617       -3.62405411340833       -0.64202868067059
H           -9.24035510670075       -1.91782918061159       -1.11722037856465
O           -5.76671978727735       -3.25069087288205        1.22520367289313
O           -7.54066597801136       -4.59143733916773        1.21208834880501
