42
 energy: -62.486133523944 gnorm: 0.000478497383 xtb: 6.7.1 (edcfbbe)
N           -0.81027308433750       -0.20518740299684        0.29344875415424
H            0.11214817979335       -0.24087470517976       -0.12243605141198
H           -0.83755002980914       -0.89730124144383        1.03723914980263
H           -2.06459246556099        1.09215118818048        0.97685955162581
C           -1.84619492139147       -0.49447522246604       -0.69641179257224
H           -1.61067674625603        0.08652283497220       -1.59723009953064
C           -1.97659192832302       -1.96966575864209       -1.07321231583928
C           -3.15304438611399        0.06328488070743       -0.15110940646567
H           -2.21217775994649       -2.56482574968599       -0.19242425223110
H           -2.77248112482724       -2.09089488146747       -1.80058046048501
H           -1.04532119177159       -2.33326917135094       -1.50268546343247
O           -3.02156941612505        1.00895881329864        0.78814808267620
N           -4.24987764916043       -0.35142099606393       -0.61100224953398
H           -5.05901972399696       -2.09288878019582       -0.40712892432717
C           -5.50950904146899        0.16730445440116       -0.11366338210427
H           -5.43762399981893        0.36167278111186        0.96767776685120
C           -5.90707210620092        1.47047584364941       -0.82195828342901
C           -6.52782048864784       -0.93722526374938       -0.31794818047025
H           -5.00238574955573        2.05822711973357       -0.99067888812891
H           -6.32885326697794        1.21333989419504       -1.79427007725601
C           -6.90821329290146        2.30936733793315       -0.01828244602044
O           -6.02670710641103       -2.18350900857259       -0.31796338266343
H           -7.63823318660928        1.63176380725737        0.43337213192861
C           -6.20164796415319        3.08435463932290        1.09236694212724
C           -7.64218645683328        3.27911493500285       -0.94224132901907
H           -5.52118725728620        3.81884923929734        0.66603607939635
H           -6.92706098675276        3.60780460509549        1.71068804606250
H           -5.62464992955713        2.42120583091916        1.73195478101012
H           -8.19620431248972        2.74455195593384       -1.70973241868458
H           -8.34485974352968        3.88420864776711       -0.37453757932808
H           -6.93358857863219        3.94585543264333       -1.42972357427480
N           -7.74064026732784       -0.66184152982566       -0.51715009059032
H           -8.96217289069766        0.52539845074536       -1.13954074406353
C           -8.72570872077255       -1.69466432687841       -0.74080029332231
H           -8.32566336699606       -2.52421147996388       -1.33842152082648
C           -9.26061278170139       -2.25162976369183        0.58276439910537
C           -9.89190278416959       -1.04986380128506       -1.50423386442278
H           -9.61982035289640       -1.43789507044485        1.20972425223536
H          -10.08076177591708       -2.93456861391257        0.38032220422421
H           -8.46890838332152       -2.78087206797269        1.10738707440332
O           -9.80614017272491        0.27270980944145       -1.58376093294426
O          -10.79883404954529       -1.68206352585770       -1.96992618953051
