42
 energy: -62.486133510500 gnorm: 0.000480186247 xtb: 6.7.1 (edcfbbe)
N           -0.77425685998159       -1.08626445688299       -0.53484585403691
H           -0.31145103964832       -1.80168289462094       -1.08598088458886
H           -0.53294959764895       -1.24557877231196        0.43953122719433
H           -1.00487584384503        0.77735249270095       -0.33476968284205
C           -2.22906258817262       -1.15306915067726       -0.69385021323233
H           -2.43007935034040       -1.27855375427258       -1.76700292982297
C           -2.86905290453035       -2.30530578131228        0.08927781708290
C           -2.81157769441313        0.21763412079766       -0.26186166958289
H           -2.72915614256499       -2.14693916331531        1.15823651567311
H           -3.93643555337631       -2.38264291412686       -0.10734082504131
H           -2.40206785669304       -3.25201980766344       -0.19175126947452
O           -1.87315835542540        1.18350834411032       -0.12980115859332
N           -3.99639851955434        0.44936875185300       -0.02028044277917
H           -4.69428784771077       -0.82072399192213       -1.53565130731698
C           -5.36530550629459        0.66909344824068        0.15909600101408
H           -5.56845267553395        0.65695976222094        1.23490261596445
C           -5.71876580492285        2.06949838466853       -0.41388943173504
C           -6.22309596288567       -0.39207508648435       -0.51973251280021
H           -5.04575635483776        2.77969174176017        0.06975775246386
H           -5.47456948551536        2.05893114210609       -1.47931057554368
C           -7.16668114648736        2.53329403768747       -0.23950053784617
O           -5.61357787670055       -1.13093957140108       -1.47017486018680
H           -7.83091685578265        1.78874497789393       -0.68444516654315
C           -7.53375410341622        2.69999529811278        1.23335100838023
C           -7.36777066284216        3.85443425114287       -0.98154246484796
H           -6.88946157007979        3.44153408587751        1.70062705739755
H           -8.56522019716508        3.03275218511763        1.32694939688805
H           -7.43086655979591        1.76063983836948        1.77157481578611
H           -7.14970923651827        3.74038641686601       -2.04136235582346
H           -8.39690894416846        4.19090692818220       -0.88056821318035
H           -6.71363186095070        4.62399553815776       -0.57621023735802
N           -7.44873013791190       -0.47537106309360       -0.24052843745481
H           -8.96254198290110        0.20448191191393        0.58716248361359
C           -8.33774692429724       -1.37241979855111       -0.94338699618845
H           -8.12428262083452       -1.39787115066264       -2.01936216307389
C           -8.27009751468480       -2.80274933122039       -0.39535950028085
C           -9.76803901148769       -0.85404668837821       -0.72742268635099
H           -8.43693605105535       -2.79970037100067        0.67966518900651
H           -9.03816615512089       -3.40335948235649       -0.87487043471714
H           -7.29324832305293       -3.23629677582233       -0.60321336010236
O           -9.87263401205564        0.02893085033653        0.25871926403522
O          -10.70233492163990       -1.23148267643318       -1.37657222644162
