42
 energy: -62.486133509511 gnorm: 0.000479952375 xtb: 6.7.1 (edcfbbe)
N           -0.85275167151617       -0.41376985457346       -0.58679608495954
H           -0.10226679878310       -1.03820754652241       -0.85667593772014
H           -0.60736202123180       -0.01379465592111        0.31508148002266
H           -1.91777171459638        0.98916656228259       -1.31469707912361
C           -2.12030581060745       -1.13465764795052       -0.47672757382844
H           -2.22226838822307       -1.74829133259917       -1.38187415198096
C           -2.24405360540124       -2.02978320793880        0.75301269235974
C           -3.23540321798491       -0.09138228518352       -0.52781009596016
H           -2.10562650552921       -1.44225389778076        1.65826255803238
H           -3.23571694049177       -2.46777319245755        0.78080719063399
H           -1.49821042359260       -2.82153738243287        0.72492814126892
O           -2.87869270778999        1.05683421861403       -1.13597604236038
N           -4.35162050350202       -0.39092566401315       -0.04258239078194
H           -5.52720598818671       -0.62303743792240       -2.15931943982728
C           -5.55466149858038        0.40351923546013        0.00038731216041
H           -5.79590560141246        0.51261141829253        1.06253697878297
C           -5.53412425319767        1.78550049773719       -0.67606011625594
C           -6.63878849470597       -0.45189748580651       -0.62188379695960
H           -4.76826844226490        2.39539541498524       -0.19479663384989
H           -5.24541665972765        1.66822942556605       -1.72404715809076
C           -6.88012909609442        2.51761750792680       -0.61405501187279
O           -6.40636825899990       -0.90027695444712       -1.87079026704906
H           -7.65436019530968        1.87281321723464       -1.04404444062220
C           -7.27777558608224        2.85763410526286        0.81974754021862
C           -6.79746860427736        3.79446689446325       -1.44951334790645
H           -6.50336583115516        3.45561957329684        1.29611709336088
H           -8.20298806876383        3.42856099131194        0.82431816707461
H           -7.43721661901296        1.95770375249543        1.40685613981480
H           -6.54581349412285        3.56685970580636       -2.48312678605982
H           -7.75036070305403        4.31783851490621       -1.43801412370440
H           -6.03505616951245        4.45968692755837       -1.04947267496324
N           -7.69044726088298       -0.69994911973311        0.02276581888754
H           -8.85377883679140       -0.23280348508854        1.33645883969311
C           -8.76099918327303       -1.49001592525774       -0.54482827544390
H           -8.91921666934109       -1.26715139550316       -1.60767589777131
C           -8.48814788920738       -2.98977209095241       -0.38863241858558
C          -10.04186662255602       -1.14599293841070        0.22972392742123
H           -8.28936158810932       -3.22346903389205        0.65521654302688
H           -9.35787044777358       -3.54936092781204       -0.72129697475311
H           -7.62424411974086       -3.27202136746396       -0.98513934759444
O           -9.82229767694302       -0.41445913750009        1.31575829491395
O          -11.13063708801924       -1.51949978727126       -0.10720763073606
