42
 energy: -62.486133518057 gnorm: 0.000478679985 xtb: 6.7.1 (edcfbbe)
N           -2.31356238269380       -0.41837355353761       -1.89184359677939
H           -2.34580117933092        0.54114468738051       -2.22134018475369
H           -2.33829801602167       -1.02582183728969       -2.70320226326971
H           -1.36743852262512       -0.35585850185914       -0.20919090023410
C           -3.44545425173677       -0.70067001380517       -1.00665762405641
H           -4.40219234381745       -0.33183346437273       -1.39795581762466
C           -3.52451934479870       -2.21416870541846       -0.79197446613189
C           -3.11999177298732       -0.01734526289886        0.32812841927033
H           -2.55566847321395       -2.59311394686663       -0.47229590138544
H           -4.26121507380542       -2.46458465280717       -0.03498677120581
H           -3.80644747802170       -2.70784734334478       -1.72006929939165
O           -1.81490081923889       -0.04545489191194        0.60645333738640
N           -3.87173896280550        0.55240177187576        1.16488048743052
H           -5.35128734195820       -1.34606837643601        2.28816695060179
C           -5.30454373807396        0.71949391507604        1.10054428882028
H           -5.60264209403193        0.94139031751611        2.13609098099698
C           -5.65369352773521        1.92824173600084        0.21908230749939
C           -6.01949337820787       -0.54282794237964        0.67939279525667
H           -4.98569160276424        2.74313120648271        0.50408652869414
H           -5.44024802567123        1.66727419042680       -0.81835440751125
C           -7.10956396564791        2.39273557425637        0.33771090668856
O           -5.91743174663717       -1.58177364324652        1.54092978232060
H           -7.76033146731676        1.51527734083709        0.27580698989028
C           -7.36543675560878        3.10459376854522        1.66406559753316
C           -7.44276228725273        3.32821929901810       -0.82370884999738
H           -6.71949010203040        3.97493915592098        1.75695612700507
H           -8.39908519145179        3.43828009790167        1.71832059531634
H           -7.18012855079604        2.44832406282270        2.51029163735926
H           -7.31833200132316        2.82336695678415       -1.77899297621588
H           -8.47172325793121        3.67216188662167       -0.75179085060411
H           -6.78983112519748        4.19820048128985       -0.80682939542143
N           -6.61834888045685       -0.61786654368118       -0.42410687881962
H           -6.93504703016596        0.04528824407903       -2.11782443519107
C           -7.24083094933307       -1.83113237064571       -0.89797621534356
H           -6.74304757080381       -2.73841419578408       -0.53612814142935
C           -8.71996981183907       -1.87461520889096       -0.49739024143871
C           -7.16488688737662       -1.78088849238034       -2.42987425698120
H           -9.22847199243507       -0.97563431258263       -0.84083664036174
H           -9.19172128327858       -2.74458010794532       -0.94552039100132
H           -8.80506785609636       -1.93706583525421        0.58494773496054
O           -7.02557317556113       -0.54406265861914       -2.90105221915842
O           -7.23778554752034       -2.74983956163904       -3.13066352132587
