42
 energy: -62.486133512778 gnorm: 0.000479292449 xtb: 6.7.1 (edcfbbe)
N           -1.26944604677921        0.11176221467712        0.34125749432024
H           -0.40308441947420       -0.28993502802458        0.68439892448657
H           -1.88233080924122        0.26950026882394        1.13456545953537
H           -2.86856002074240       -0.09034632436781       -2.73873648844105
C           -1.91762584799231       -0.80524596067431       -0.57938558118299
H           -1.33129281272450       -0.80032423779798       -1.51065810404982
C           -2.02298698724278       -2.25066933230994       -0.06461124207737
C           -3.31362930270857       -0.28719444235548       -0.85128475813149
H           -2.61560517993828       -2.26476304205924        0.84670653499506
H           -2.50280130036379       -2.88997473462122       -0.80241259425395
H           -1.03073382307567       -2.64533128340312        0.14460741958223
O           -3.64587283250675       -0.05963677947598       -2.16669551410400
N           -4.08507945765186       -0.13837216667683        0.11995233633856
H           -5.26715429205074       -0.92665284411304       -1.96498553903526
C           -5.43254468268050        0.37494025003883        0.11928743793544
H           -5.69469754499329        0.48624827803586        1.17509095914393
C           -5.52848964439817        1.74806908482537       -0.58082937992251
C           -6.44039184331701       -0.57241707874455       -0.49571512479112
H           -4.72211992114007        2.37176572486962       -0.18674668591844
H           -5.34951956132326        1.60985571070272       -1.64995255087482
C           -6.86760806396104        2.46633689330652       -0.38893175657593
O           -6.10752185474254       -1.25096200315553       -1.60438097741316
H           -7.67501614907028        1.79491613028564       -0.69728427377041
C           -7.09821523562899        2.86826828034624        1.06550820451315
C           -6.90402427685106        3.70674759358565       -1.28142842324175
H           -6.29516766195196        3.51587284598245        1.41198358669417
H           -8.03778116361081        3.40736510532866        1.15701884413294
H           -7.14667267561024        1.99793519316308        1.71380388405896
H           -6.77590344218108        3.43692404656215       -2.32755146299666
H           -7.85692809081948        4.21926371538771       -1.17636021188810
H           -6.11009179534742        4.39768457126518       -1.00432243442501
N           -7.58843185964842       -0.62152622193441        0.02549769043396
H           -8.87923416879780        0.19682976529507        1.02498296908535
C           -8.64018031558529       -1.43558740850248       -0.53914308328069
H           -8.62098128097163       -1.43280500534668       -1.63696180147140
C           -8.54571285000028       -2.88401638869546       -0.04731154294451
C           -9.97708016120225       -0.84837001044199       -0.06462449243515
H           -8.52242692496967       -2.90530689561488        1.04035543702995
H           -9.41089507167202       -3.43970447278772       -0.39745248835981
H           -7.63871863239107       -3.34541244816769       -0.43020916401009
O           -9.84602607289535        0.07878512586432        0.87712292806841
O          -11.03760718227001       -1.20654228957535       -0.49522935242145
