42
 energy: -62.486133495816 gnorm: 0.000483172605 xtb: 6.7.1 (edcfbbe)
N           -1.18552336901192       -1.50880971668233        0.23976459047444
H           -0.22698782212608       -1.60806226054793       -0.07057576255950
H           -1.58046695572137       -2.44278848403931        0.30936241228012
H           -2.20312539967996       -0.60500358571275        1.58091368719110
C           -1.96433521349225       -0.71393942494251       -0.71011183251761
H           -1.36407583746883        0.16716827116900       -0.96893996642108
C           -2.36108868215757       -1.44774271062237       -1.98835350145096
C           -3.18853690727143       -0.20342513016775        0.02931379956408
H           -2.92565060192754       -2.34566628213791       -1.74529115930708
H           -2.99183272717402       -0.80254567066955       -2.59022501415747
H           -1.47720156151503       -1.72736385110037       -2.55783953621301
O           -3.08697951189484       -0.23200733341364        1.38345354617208
N           -4.19560460492680        0.19480830020438       -0.60434533608455
H           -5.10786619052109       -0.92510153437496        1.78914408094157
C           -5.33975479263268        0.74743566123803        0.09947424488028
H           -5.04421014481748        1.16837234860842        1.07208858692921
C           -5.95809921406960        1.82451978884843       -0.79262794875855
C           -6.25843486567972       -0.42896677057205        0.33473082725090
H           -5.19869470391682        2.58929460426414       -0.96734704311498
H           -6.18677370723438        1.35668594587327       -1.74966328381257
C           -7.21965849957040        2.47611528358418       -0.21878310001913
O           -5.93448134666803       -1.22236738536355        1.37970038097216
H           -7.92010550303311        1.68504429095425        0.06439283592845
C           -6.90938212525195        3.32177771252485        1.01481865016183
C           -7.87532863239228        3.34258648169998       -1.29248047699167
H           -6.17253020690398        4.08630448580864        0.77642415815666
H           -7.81135793625159        3.81605967140880        1.36854066458771
H           -6.52339763021149        2.71152437498652        1.82748589184484
H           -8.14372959744654        2.74387453744554       -2.15913334497730
H           -8.77818697886223        3.80994674430508       -0.90658535583327
H           -7.19419435919044        4.12775697473964       -1.61385542705219
N           -7.19675485545992       -0.68295628302135       -0.46208920296223
H           -7.99890298510810       -0.39008121315048       -2.04938680323609
C           -8.03523213286666       -1.84968465203161       -0.32092586821674
H           -7.44910486440155       -2.74973974728258       -0.09504506228727
C           -9.09199824677644       -1.66229713690632        0.77309159660914
C           -8.75571255194225       -2.04766254792255       -1.66389617295568
H           -9.66387941899990       -0.75537118072320        0.58672175186640
H           -9.76614691333731       -2.51409920642317        0.76991852549662
H           -8.60992635542198       -1.58541110319742        1.74452844304270
O           -8.60390285027438       -1.02784831346999       -2.49859744759079
O           -9.40703445224151       -3.02235977450205       -1.91883489761533
