42
 energy: -62.486133521747 gnorm: 0.000479099506 xtb: 6.7.1 (edcfbbe)
N           -0.92550225920797       -0.93725429567661        0.10304420824177
H           -0.48818518437881       -0.03897137980245        0.28064883882915
H           -0.21543875921312       -1.56310750681253       -0.25835565365608
H           -2.32493085586642       -1.05912929043157        1.40092584755866
C           -2.02772801956997       -0.79829371437397       -0.84909995943196
H           -1.83160097223470       -0.08596393042135       -1.66088944718462
C           -2.37183530741296       -2.16230378380619       -1.44961958590242
C           -3.23160606870831       -0.31390551992605       -0.06568625107001
H           -2.57466847181817       -2.88128711087925       -0.65828567375880
H           -3.25204296441468       -2.07113091432009       -2.07902202012357
H           -1.54418552553030       -2.52965580043061       -2.05242378862198
O           -3.21427113469764       -0.67442697221203        1.24585940043336
N           -4.13124821249236        0.34554448616312       -0.63537945784157
H           -5.04867328900123       -1.08099820928814        1.60026541168673
C           -5.33578640128653        0.77395852094969        0.05403420923179
H           -5.08238739738998        1.15418614890816        1.05670082712870
C           -5.98014697616424        1.87352822971864       -0.79056770708341
C           -6.23316536745286       -0.43297503853649        0.23422878297739
H           -5.22672232930052        2.64482599439352       -0.95977075585588
H           -6.22836392272301        1.43465462817432       -1.75630459233812
C           -7.22971071762690        2.50296254066329       -0.16743336262321
O           -5.91527540065519       -1.29558325624581        1.21729294230373
H           -7.90552560086351        1.70037904936468        0.14190687270985
C           -6.88457027740325        3.35210616470545        1.05463839636052
C           -7.94267722807176        3.36109985712935       -1.21086131929201
H           -6.18282487926219        4.13872388226022        0.78442167639850
H           -7.78212268924395        3.81816191979138        1.45481446651517
H           -6.44125266948656        2.75063435824701        1.84429513837414
H           -8.23986445372465        2.76026256766538       -2.06662791592056
H           -8.83468667931703        3.81515476807282       -0.78566660731962
H           -7.28693618799591        4.15626528212539       -1.55924224744134
N           -7.20238285394245       -0.61155367146625       -0.54923055704163
H           -8.07524307063807       -0.16925932607428       -2.05868353381719
C           -8.06878471800098       -1.76213961405773       -0.45898168156076
H           -7.50494787688595       -2.69219803416961       -0.31252670354844
C           -9.08617192309526       -1.61700550311698        0.67878959833734
C           -8.83905179385479       -1.84436366475914       -1.78612434991189
H           -9.63680819190072       -0.68468444116479        0.56830143380381
H           -9.78467163838814       -2.44824732729441        0.64410595785916
H           -8.57219075100587       -1.61503914941896        1.63675751912293
O           -8.70899936322601       -0.75749387849260       -2.53605325401093
O           -9.51300287087515       -2.78750289006244       -2.09525996468328
