42
 energy: -62.486133521685 gnorm: 0.000479459922 xtb: 6.7.1 (edcfbbe)
N           -2.41107429501994       -0.86708957063100       -0.35111164097335
H           -2.26061040759537        0.02287375393741       -0.81466164761500
H           -2.09483469122973       -1.60230940445582       -0.97372196248328
H           -2.44086029552792       -0.54431119277618        1.72057092369100
C           -3.82395547962227       -1.05117385651268       -0.01051700201966
H           -4.50116970090569       -0.90887682665003       -0.86621880076484
C           -3.99538454673557       -2.45871046124739        0.55888515988052
C           -4.11354685016600       -0.00198717818042        1.06638356698139
H           -3.34590110296329       -2.60030094836715        1.41988426677879
H           -5.02147910922078       -2.61891666600966        0.86747890267689
H           -3.73081279413879       -3.19956198767156       -0.19403317273247
O           -3.18279257220009        0.00683889009040        2.02804225392813
N           -4.99447699354260        0.89389479225902        1.12976945902110
H           -7.56955456819927        1.05883987650375       -1.70105966073399
C           -6.09200437385188        1.14705069004791        0.24657904545925
H           -6.81027262414453        1.71100635962778        0.86370590483103
C           -5.61242210468372        2.07261733097492       -0.90287826995750
C           -6.87970258084345       -0.04070976748507       -0.27451800922942
H           -4.62884629142884        2.45349133997850       -0.62125698089552
H           -5.47622027344190        1.48553095335538       -1.81701517820064
C           -6.53011198504214        3.27683082254211       -1.17043920737767
O           -7.64572098521882        0.15471560068262       -1.37044752594727
H           -7.58331696831401        2.96705915948470       -1.12413287196772
C           -6.31447346039915        4.35256026533718       -0.10851429429622
C           -6.25946397248667        3.84642596879839       -2.56245894427408
H           -5.30932133841263        4.76005645916452       -0.18672167165246
H           -7.02622584271649        5.16443694837862       -0.23811263980967
H           -6.43584899612819        3.94209681409463        0.89045361829906
H           -6.46186523113463        3.11008984750457       -3.33868053098182
H           -6.88856916422123        4.71399255445242       -2.74554835734934
H           -5.21997742657341        4.15519893397841       -2.64658905350578
N           -6.88355613340142       -1.13159110397114        0.35498590966440
H           -6.83165921210672       -1.89018085644526        2.03919589944304
C           -7.73574607184079       -2.22906576449911       -0.05113809406728
H           -8.75700426823933       -1.87059941669191       -0.24668129146916
C           -7.24155284309804       -2.95759945757418       -1.30298231973644
C           -7.81705168693421       -3.20808177362789        1.13015970003537
H           -6.20750482997338       -3.26799939272835       -1.17637297455693
H           -7.85694413253738       -3.83902936740024       -1.45879386003964
H           -7.31687550768826       -2.30608737479300       -2.16975185758423
O           -7.22672208564132       -2.76935218600659        2.23735825066170
O           -8.37106535400042       -4.26912422612211        1.05953607756205
