42
 energy: -62.486133503498 gnorm: 0.000481400919 xtb: 6.7.1 (edcfbbe)
N           -1.10129765552511       -0.91730696818730        0.87912286676071
H           -0.12418939042802       -1.08045575407695        0.66827204924737
H           -1.45973743782621       -1.75191726594861        1.33514729026980
H           -2.24685762913639        0.46929137613992        1.64767947281587
C           -1.86352636922043       -0.65100573323974       -0.33926530464285
H           -1.31704390440310        0.12085681057307       -0.89818183162020
C           -2.07839085308124       -1.86519406124621       -1.24086040456822
C           -3.17946634608537       -0.02527123968415        0.09734586106394
H           -2.66901784952424       -2.61871185554042       -0.72432547779858
H           -2.60756045730182       -1.56718357176385       -2.13979471542084
H           -1.12043562204401       -2.29789981137603       -1.52294722828410
O           -3.13040708492549        0.63349555982363        1.26309103608448
N           -4.20028741120007       -0.13281425146956       -0.63101339070828
H           -5.26626640279481       -1.21478729453276       -1.81634815439023
C           -5.46640473637742        0.45595242415754       -0.24580789710615
H           -5.51425574473191        0.67579550239895        0.82529884329998
C           -5.67368710421140        1.75082658076898       -1.05403641239115
C           -6.52454049597956       -0.56383256039758       -0.60323987095520
H           -4.86033681494353        2.43293198342125       -0.79551491663435
H           -5.57712519302215        1.50434304288666       -2.11477311845608
C           -7.01673556739767        2.44616033028951       -0.81527453166674
O           -6.20027627064924       -1.40070697580804       -1.59753875572787
H           -7.82161936968454        1.73140838281994       -1.01126076336586
C           -7.14863692022030        2.94553556570567        0.62094836325266
C           -7.15980622965193        3.61427535607166       -1.79010020683150
H           -6.34656358312182        3.64281568801925        0.85504062337311
H           -8.09860691878256        3.45730764706467        0.75256517840931
H           -7.10894122685721        2.12116048315277        1.32710027251344
H           -7.09950259225586        3.26961524291919       -2.81996380024695
H           -8.11887633524460        4.10647478180763       -1.65094442339073
H           -6.37139456333342        4.34613585385786       -1.62551780535612
N           -7.61944790515240       -0.57418357854990        0.02112691271558
H           -8.85993347827475        0.35753060582291        0.96632180141773
C           -8.67106342498232       -1.51045848063407       -0.31118230183726
H           -8.75427258863258       -1.66831646399428       -1.39426181907390
C           -8.45051058347906       -2.86536325718443        0.36960331539363
C           -9.99026385722202       -0.91527029564763        0.20295804247694
H           -8.31365777313718       -2.72464252920895        1.43996131879402
H           -9.31827810319900       -3.49678089365706        0.20072348854931
H           -7.56632888814047       -3.34644207269262       -0.04136785754629
O           -9.82826355857635        0.17169497883016        0.94774293349612
O          -11.06237701906729       -1.39708911539960       -0.03759368786722
