42
 energy: -62.486133514774 gnorm: 0.000479620885 xtb: 6.7.1 (edcfbbe)
N           -0.94110339856645       -0.80074082306143        0.66736731211724
H            0.03031560743741       -0.87043432011771        0.39044145175573
H           -1.19380350667924       -1.67385520016396        1.12199460400357
H           -2.12509772501205        0.42821751073673        1.56571847869554
C           -1.80441980770581       -0.57238147276592       -0.48965763059010
H           -1.34603380286902        0.22762239507235       -1.08538666299350
C           -2.02037741760324       -1.79620204954564       -1.37867703931476
C           -3.11898570910243       -0.01717239080886        0.04099999686734
H           -2.48040420700133       -2.60142820516805       -0.80868096043834
H           -2.67170797493095       -1.53642573891181       -2.20659131700126
H           -1.06909246810405       -2.14675245578339       -1.77406939938282
O           -3.03910120854757        0.56681233758464        1.24405562396042
N           -4.16036983990710       -0.09327272727874       -0.66350843891048
H           -5.01245010453988       -1.70374872961289       -1.03227951202397
C           -5.43230778362641        0.41776999980100       -0.18853855363338
H           -5.39551336444675        0.67790661592115        0.87676551183517
C           -5.73168420947517        1.68144271059105       -1.01674618731993
C           -6.44798560249743       -0.69439741037946       -0.37785733926779
H           -4.92282082116868        2.38680940222100       -0.80729095035918
H           -5.66475190955474        1.40593551829461       -2.07178333049713
C           -7.07277865763564        2.37250903374364       -0.76329754656858
O           -5.95177651184627       -1.86521393939596       -0.80891945345972
H           -7.87128373729922        1.71208024084395       -1.10777701930276
C           -7.28811842261405        2.68358097982859        0.71500946336762
C           -7.13187157081355        3.66071715279664       -1.58369412711917
H           -6.47461541411152        3.29765673301938        1.09665057478217
H           -8.21993249124829        3.22736109869020        0.85027225798944
H           -7.33805773280242        1.76932377733581        1.29981411657891
H           -6.97388003968070        3.45407062102120       -2.63962246517448
H           -8.10371041709179        4.13429481693641       -1.46995232839720
H           -6.36782296957484        4.36134427033790       -1.25242438568529
N           -7.67785891285890       -0.48185022376148       -0.19624690760681
H           -9.10908906237206        0.60255792494388        0.24971887318743
C           -8.65279064559653       -1.53081221439588       -0.40476860730931
H           -8.49349582313542       -2.04724535439371       -1.35979861928535
C           -8.63190205667633       -2.56797850692258        0.72481945519252
C          -10.03968473272412       -0.87510348478899       -0.41443481733442
H           -8.75034909871164       -2.07253397416686        1.68676193382837
H           -9.44831476520194       -3.27050645728138        0.58313042715723
H           -7.68700405254830       -3.10504251620719        0.71533255576057
O          -10.04502312285257        0.36535099965652        0.05906161714666
O          -11.02913576856373       -1.44229179093620       -0.78697563472115
