42
 energy: -62.486133509420 gnorm: 0.000480458039 xtb: 6.7.1 (edcfbbe)
N           -1.76299978245868       -0.17895295055305        0.76248376258815
H           -1.00266726979235       -0.64074038965259        1.25167634252549
H           -2.28694676766967        0.36482115440883        1.44047739121544
H           -3.41273323054711       -0.95841698573937       -2.13410495749282
C           -2.65304878763882       -1.17274395081225        0.17751388893441
H           -2.11208307232631       -1.63025388151842       -0.66439176587552
C           -3.08555008772225       -2.27575551145049        1.15389897483627
C           -3.87321616177814       -0.43259516265590       -0.33974596795924
H           -3.68991045625572       -1.83832543531628        1.94390361218722
H           -3.67019223700676       -3.03847268595872        0.64744669095229
H           -2.20686451171690       -2.74680363256871        1.59113107470033
O           -4.10863913660344       -0.47417102285727       -1.67218028127831
N           -4.58787863213112        0.14894796090550        0.51152513113566
H           -8.04725362146147        1.65737933636927        0.71262867893680
C           -5.74721793223790        0.96421438536353        0.26006228711943
H           -5.78909366789024        1.64945556364107        1.11922277735350
C           -5.68139275499462        1.78229819959206       -1.04755166454195
C           -6.98879554736550        0.10056790737909        0.30463052242188
H           -4.67544524151295        2.20590261244678       -1.10305292388863
H           -5.79586255867721        1.09326066554046       -1.88502798091909
C           -6.69970890608722        2.91847226381438       -1.20044954880482
O           -8.16742696628540        0.71265713170827        0.55627532843583
H           -7.71568471458936        2.50755232816044       -1.18170263968669
C           -6.56053448856134        3.98288893504807       -0.11211571721730
C           -6.49931851934006        3.56777234737655       -2.57073995911880
H           -5.54945218183345        4.38432701693550       -0.11069618781130
H           -7.25169782212217        4.80189666868778       -0.29980640181566
H           -6.76902498610860        3.59434176793624        0.88327849969900
H           -6.61339607295357        2.83349337141136       -3.36445596694043
H           -7.22875883084005        4.35894513849422       -2.72836752851396
H           -5.50354387052808        3.99937277321762       -2.64331661514567
N           -6.87809324042182       -1.14323254216193        0.16597050750082
H           -5.81766364022937       -2.51075805444675       -0.11191922265098
C           -7.98824882658858       -2.06291512325027        0.20421440050109
H           -8.56049444153764       -1.96041471371171        1.13464396207412
C           -8.94064523825334       -1.89601822236044       -0.98461014753526
C           -7.38029130980592       -3.47544188892541        0.14821975652369
H           -8.37878674354530       -1.93123242705462       -1.91607222809996
H           -9.66593367925480       -2.70474096081847       -0.97612077436039
H           -9.45937232830796       -0.94340497479864       -0.91765664774534
O           -6.07323213349535       -3.46857003043827       -0.08592506673086
O           -8.02709085731450       -4.47663269728606        0.27974158920771
