42
 energy: -62.486133517122 gnorm: 0.000479097471 xtb: 6.7.1 (edcfbbe)
N           -0.99425024726303       -0.45578656965460       -1.08497179266480
H           -0.21393585871241       -1.07916952731716       -1.25353822809624
H           -0.66301334440567        0.28919410492283       -0.47768028620029
H           -2.36652219740552        0.43324064110113       -2.06734349987962
C           -2.10022841918773       -1.16312561227201       -0.43945265066306
H           -2.25650680426834       -2.09705336566366       -0.99500110240178
C           -1.88171405022938       -1.48791373126738        1.03468839156146
C           -3.35071341996708       -0.31613870808061       -0.64912570027635
H           -1.69397354342245       -0.57533254819043        1.59619765360706
H           -2.77427990255933       -1.95608514750049        1.43475041126304
H           -1.03439995003522       -2.15994154327536        1.15456059968885
O           -3.29004109408673        0.47930892135096       -1.74307377297072
N           -4.32246813798908       -0.46178218607569        0.12919426453484
H           -5.34939825590177       -0.82344509785383       -2.03262307972113
C           -5.57389783634723        0.25557618521201        0.10068481746171
H           -5.88000486857718        0.32597891584388        1.14925103161307
C           -5.56208149870213        1.66251096349744       -0.52482185770627
C           -6.60035910102821       -0.59897026584647       -0.60956384398148
H           -4.72004667185893        2.21470879658009       -0.10121327738068
H           -5.39391514136619        1.58100268302626       -1.60085349327458
C           -6.85947560723183        2.44252095605877       -0.28118914946420
O           -6.24054756506951       -1.11705284517207       -1.79918016031956
H           -7.70765283149125        1.79807215518999       -0.53374824908342
C           -6.99774016162975        2.87777686053089        1.17517192954179
C           -6.89575896025318        3.66789604704745       -1.19380292825649
H           -6.16542762515416        3.51848343695358        1.46026469962486
H           -7.92097370613445        3.43575867597111        1.31115756075764
H           -7.02171620094521        2.02242761824606        1.84459555572735
H           -6.84814512392529        3.37381983429125       -2.23990285659851
H           -7.81490400140992        4.22743972466256       -1.03914854858788
H           -6.05410505730442        4.32453597254013       -0.98237411616804
N           -7.74577079628411       -0.73405195327393       -0.10522927041111
H           -9.03711411920438       -0.08128278308259        1.00436395155636
C           -8.79179390513400       -1.47261525621737       -0.77546063862252
H           -8.77336797209671       -1.32206250841895       -1.86262373894233
C           -8.68885818998676       -2.97296806352896       -0.48120773012239
C          -10.13164384616418       -0.96096536543500       -0.22559094405220
H           -8.66322390906515       -3.13907360325796        0.59382322058731
H           -9.55202039705298       -3.48147047292168       -0.90149252978786
H           -7.78005943274478       -3.37416263325570       -0.92280478047479
O          -10.00348600752192       -0.17734887436884        0.83894527478092
O          -11.19065550561769       -1.25447958317934       -0.70569605659942
