42
 energy: -62.486133511633 gnorm: 0.000480110609 xtb: 6.7.1 (edcfbbe)
N           -1.01496045709749       -1.47188514518777        0.17559167257878
H           -0.63479561708732       -1.01965201606108        1.00034579444424
H           -0.23839360716881       -1.78671133751494       -0.39395754929681
H           -2.64524197008678       -2.23193630897871        0.74931150175758
C           -1.87198162907576       -0.55398776218229       -0.57431674042431
H           -1.51636344656339        0.48444895368031       -0.57710117317958
C           -2.01852561523760       -1.03614615520954       -2.01756912422788
C           -3.25017533493181       -0.58715132623820        0.07302243166047
H           -2.37983263643698       -2.06224177033523       -2.03597555302331
H           -2.72850916088497       -0.40262871706092       -2.54059998785435
H           -1.06046966983739       -0.99226875751049       -2.53143799385565
O           -3.48569237282834       -1.72354481857205        0.77483707922477
N           -4.00492581569989        0.39518064270802       -0.08342650496327
H           -5.16887313049507       -1.57160966038633        1.55652278970078
C           -5.37702030383777        0.60155333444705        0.31726108551015
H           -5.35137652438390        0.96546069706983        1.35795538770944
C           -5.91404521001783        1.72020333890929       -0.58637017588754
C           -6.29091731588419       -0.61320878225229        0.32663478274661
H           -5.11890686603243        2.46082500684580       -0.68091712383683
H           -6.09001238107047        1.29314817539693       -1.57344799232482
C           -7.18968364083934        2.39973921725479       -0.07753021863676
O           -6.08734362969659       -1.57499841371152        1.24242672505950
H           -7.89445547723343        1.62712652052884        0.24248721983373
C           -6.89877877795536        3.31925438695285        1.10702566577205
C           -7.82984600081778        3.20232645998648       -1.20897936616817
H           -6.19629886560447        4.09840137169056        0.81817125620799
H           -7.81513418795014        3.79482470183294        1.44921580323107
H           -6.47548496696570        2.76907153041504        1.94380598370296
H           -8.10006232282127        2.55556758184391       -2.04002507506474
H           -8.73047007971802        3.70146140015667       -0.85919553048767
H           -7.13857600682072        3.95977911694683       -1.57248527297352
N           -7.26727287278597       -0.63754084077435       -0.47122110831851
H           -8.10288517978758        0.01122245942516       -1.92628095809289
C           -8.21115300894523       -1.72886678834937       -0.49908954738692
H           -7.71720809087561       -2.70580521401088       -0.42099491298987
C           -9.24494569225015       -1.60747881416201        0.62672852912513
C           -8.95302713247144       -1.64119383503469       -1.84122821942183
H           -9.72838260515430       -0.63307619104573        0.58468917591190
H           -9.99707832916867       -2.38258373307721        0.50966270854102
H           -8.75476566063107       -1.72014392740985        1.59049980719321
O           -8.75102045403198       -0.49247227651754       -2.47591665035912
O           -9.66129922404319       -2.51448832421507       -2.25919331270723
