42
 energy: -62.486133515819 gnorm: 0.000479720286 xtb: 6.7.1 (edcfbbe)
N           -2.44464591772723       -1.91601703288700        1.55889865656863
H           -2.47482001952744       -1.49484020432126        2.48123602496109
H           -1.53113315678538       -2.33521498669462        1.43363015977471
H           -4.24543124857433       -2.39463327337886        1.28439927993004
C           -2.71237369636322       -0.92163879656293        0.52276477348931
H           -2.23273479686949        0.04964467611743        0.70375028655553
C           -2.25907963450039       -1.45741079297722       -0.83513659823028
C           -4.22773150552609       -0.70924529128178        0.47687565662361
H           -2.73031959590847       -2.41747067507799       -1.03352706828755
H           -2.54223617652763       -0.75678436230371       -1.61447544826003
H           -1.17876879279623       -1.58699151354724       -0.85260651413311
O           -4.91652835851658       -1.76987751019963        0.92682672304801
N           -4.62355942070460        0.37921876084214        0.00687799533942
H           -7.94835573887403        1.23901090268670       -1.59128079936655
C           -5.91084264597759        0.97130297900275       -0.22792916243013
H           -6.05596098320541        1.66711706756009        0.61501574115980
C           -5.75311410189537        1.81176615214302       -1.51553485309082
C           -7.16105666046828        0.10080437873791       -0.24163480136790
H           -4.68271531474035        1.97882635049983       -1.64370114730001
H           -6.08082160899286        1.22521751505024       -2.37910103413022
C           -6.45851156224819        3.17823578462559       -1.48079574006990
O           -8.16646502211662        0.44930007283617       -1.08249327150440
H           -7.43452897124264        3.08985366677526       -0.98559696889686
C           -5.62884677307301        4.18495477818377       -0.68639808093175
C           -6.68312233931312        3.69249098208200       -2.90245848858945
H           -4.68417585830505        4.37457281745901       -1.19084907702265
H           -6.16274586310441        5.12753855029238       -0.58973878344941
H           -5.41269877186409        3.80984387136035        0.31074560076772
H           -7.32340009504743        3.02070611561089       -3.47189319510681
H           -7.15380548003833        4.67255918408064       -2.88241818110098
H           -5.73261004100843        3.78078543003247       -3.42388230678170
N           -7.26102356428176       -0.87874246214781        0.53560848760678
H           -6.57751962434674       -1.98801594401486        1.90653548649673
C           -8.43933573669564       -1.70611587572615        0.59494762623663
H           -9.36475901879234       -1.11917903605463        0.53516877472950
C           -8.43841740756233       -2.75297616170219       -0.52576367482003
C           -8.39865774016151       -2.45228822889852        1.93508943940289
H           -7.51022942962563       -3.32022037347489       -0.49819888600364
H           -9.27772287488105       -3.42948158640629       -0.39064785551450
H           -8.52394752751290       -2.25995460464691       -1.49101696013175
O           -7.19472897226883       -2.49837573934076        2.48503558957747
O           -9.36670922956002       -2.97030123666891        2.42260805820105
