42
 energy: -62.486133513265 gnorm: 0.000479307321 xtb: 6.7.1 (edcfbbe)
N           -1.18440685993225       -0.92864910250998        0.53251936467714
H           -0.71424215014250       -0.02931715595190        0.50780018621188
H           -0.48521808064319       -1.64725684480548        0.38746912001195
H           -2.65347855778395       -0.62645032812022        1.72369447963279
C           -2.22144643358857       -0.99817591770865       -0.49800309845811
H           -1.94074565314544       -0.52283286677836       -1.44735001202888
C           -2.59886728958874       -2.45724099171429       -0.76251045392027
C           -3.43997938005196       -0.28427296165409        0.05158200901371
H           -2.88295372925946       -2.94731041043893        0.16729654324871
H           -3.43576723763521       -2.49457299110274       -1.45404543927674
H           -1.75777122900643       -2.99262544528398       -1.19731030952283
O           -3.51727175937892       -0.28339471376543        1.41089106426996
N           -4.29870340513652        0.19601350948285       -0.72435633384038
H           -5.46225534339785       -0.71975897475386        1.56747703351246
C           -5.47651348760888        0.87224461836420       -0.20832632274738
H           -5.25677663531537        1.35211792235813        0.75798818923119
C           -5.91867356429945        1.90584004254242       -1.24235274447969
C           -6.51707993294119       -0.19995480822261        0.01857503903334
H           -5.05795635455103        2.53423732265984       -1.47881390008195
H           -6.19948481331264        1.35624430775048       -2.13920930605885
C           -7.09211590481058        2.78194513068271       -0.79472319279668
O           -6.30930902217975       -0.95441512041120        1.15571577055571
H           -7.89931013111307        2.12768330084410       -0.45311703175989
C           -6.70135096689084        3.72682323843174        0.34017071121128
C           -7.60017524151336        3.58919325411061       -1.98759339791018
H           -5.86343656065420        4.35375938440663        0.04077634329984
H           -7.53805993158780        4.37358000473929        0.59393143473195
H           -6.42071876292478        3.18079242717931        1.23734303112894
H           -7.92014254255813        2.92518744965465       -2.78587479208379
H           -8.44557458474977        4.20835828542597       -1.69724235505689
H           -6.81440727641717        4.23759767440986       -2.37024087509871
N           -7.43611859399951       -0.38621916094830       -0.80572681698770
H           -8.05003713080985       -1.11438735472443        1.60258573158827
C           -8.44761005312866       -1.41032117065826       -0.76545507672476
H           -8.97701810635197       -1.33103862073941       -1.72208596121071
C           -7.89598110228824       -2.83484982807813       -0.61344774160390
C           -9.49505585616980       -1.17113562434601        0.33312004185969
H           -7.40265697407694       -2.96993086217856        0.34663410421401
H           -8.71082780542622       -3.54971976633469       -0.69626942620117
H           -7.17425098758633       -3.02632819767547       -1.40437739757879
O           -9.02328020353449       -1.04699908495070        1.57286902750658
O          -10.66916162281623       -1.12648524537729        0.09892794776811
