42
 energy: -62.486132265101 gnorm: 0.000628520441 xtb: 6.7.1 (edcfbbe)
N           -1.44200664513691       -0.48340268011382       -0.00526301387653
H           -0.72893677186553       -1.17091132592583        0.21492295358248
H           -1.95640496879660       -0.26814820542682        0.84236989530694
H           -3.69953107226079       -0.27190353590100       -2.87681662600183
C           -2.37080998406835       -1.01617467215040       -0.98357535680533
H           -1.89588822932089       -0.92261456855118       -1.97291536175730
C           -2.75313526991385       -2.48985914485453       -0.75224451421498
C           -3.65409711627120       -0.20963553165333       -0.95632095948364
H           -3.19548731149493       -2.59341203669204        0.23575423754054
H           -3.47977989011362       -2.82064141414499       -1.49062222611603
H           -1.87014051783399       -3.12283125751551       -0.81919206686936
O           -4.21688991047098        0.08408949107105       -2.14334836074886
N           -4.12144810662171        0.08515809704708        0.17289527582552
H           -7.14080301831039        0.44950313157095        2.04900775540131
C           -5.37329107715821        0.76132706656931        0.39903555935196
H           -5.29294321302948        1.14233645630503        1.42860707970082
C           -5.69090533476005        1.92975083889595       -0.55091537535865
C           -6.49634572522546       -0.25099831910007        0.34668885972307
H           -4.79591150631553        2.55042248977879       -0.63074956131154
H           -5.90322485110050        1.50942988246830       -1.53327482840691
C           -6.87532491473011        2.79290548401703       -0.10046978729003
O           -7.40683844348294       -0.20072534381376        1.38733775888186
H           -7.71894093411950        2.14190488039566        0.15702509786283
C           -6.52643135995749        3.65922323491529        1.10928615835618
C           -7.31688010608616        3.68517255911615       -1.25944741556636
H           -5.71786406138517        4.34235460598384        0.85842514826887
H           -7.38928723280619        4.24840661105797        1.41228871199459
H           -6.21032423042363        3.06321061747428        1.96300965636782
H           -7.63154395355491        3.08157845294703       -2.10701334091789
H           -8.15075888615486        4.31566018736906       -0.95953318822546
H           -6.49720565144283        4.32596011150513       -1.57698381774389
N           -6.57147447718394       -1.03754911493808       -0.61998099329618
H           -8.88905012972698       -0.44046190444634        0.35317300800916
C           -7.56359076548800       -2.05334865506648       -0.85150890399822
H           -7.19434863381814       -2.63034450403160       -1.70752851859941
C           -7.79748328629353       -3.00273764392575        0.33126116940395
C           -8.91193945088797       -1.45290042290495       -1.28003259276807
H           -8.22109327795467       -2.48034267107854        1.18617796461071
H           -8.47768040397421       -3.79522012249454        0.02902830404470
H           -6.84984941301077       -3.44466743868773        0.63138632850293
O           -9.45110271558339       -0.57724550451556       -0.43237808576459
O           -9.45919841187255       -1.76434372408214       -2.29863069169326
