42
 energy: -62.486133511125 gnorm: 0.000479779794 xtb: 6.7.1 (edcfbbe)
N           -0.89390356514079       -0.24870800544895       -1.22975193489733
H           -0.14203544907793       -0.84400942787139       -1.55395641503093
H           -0.52556662672266        0.32949808766184       -0.47935099312333
H           -2.23113662421022        0.90238333463711       -1.93208975325670
C           -2.01954239393029       -1.04095087473671       -0.73820406336237
H           -2.21438466671039       -1.82144476446897       -1.48708112713688
C           -1.79192119470670       -1.69265221272755        0.62418222781922
C           -3.24507359908638       -0.12336947162796       -0.73466630537859
H           -1.55432887598780       -0.93213125935853        1.36538386034058
H           -2.69225676404017       -2.20637859875057        0.94283282493183
H           -0.97084795258970       -2.40467504216399        0.57154647752136
O           -3.13941678931495        0.92354213294366       -1.56242876274553
N           -4.20612187462786       -0.42762479432468        0.01705589713105
H           -5.08548638815256       -1.87653392317624       -0.91572117360205
C           -5.49934690818117        0.20854355004048        0.12930939605705
H           -5.68315824617331        0.28635039749974        1.20741727972048
C           -5.61474270844699        1.60687090009078       -0.50491761211835
C           -6.52695428730807       -0.76397797211593       -0.43202837075394
H           -4.79936634089234        2.20938582380711       -0.09762900977808
H           -5.45228722335174        1.51564589352731       -1.58019581143008
C           -6.93567305077928        2.34663906935871       -0.27641302259635
O           -6.05071534078520       -1.86207740987695       -1.04343535551913
H           -7.73102576721741        1.79982259604394       -0.78789094872864
C           -7.29076181251971        2.46711151341682        1.20298450805471
C           -6.83740256287918        3.73803740799446       -0.90187398357142
H           -6.48815423223376        2.96058616074217        1.74802200100524
H           -8.19622510568637        3.05748634144003        1.32065051653176
H           -7.46434317289856        1.49016548548762        1.64577594489371
H           -6.58010551802998        3.67011530907694       -1.95626882293881
H           -7.78773299678103        4.25879060326513       -0.81470621226885
H           -6.07418229299096        4.32994129521638       -0.40028305896092
N           -7.75700008807569       -0.52539651617056       -0.29516551473872
H           -9.15833456592034        0.54668139407717        0.24847410969847
C           -8.76075115257309       -1.42708808646514       -0.81925012323941
H           -8.54410942250657       -1.71799176953764       -1.85448991448153
C           -8.89359984176460       -2.69589145901900        0.03198409261554
C          -10.10699492959473       -0.69123113641553       -0.78038561716514
H           -9.07576955088838       -2.42869788203959        1.07120974520288
H           -9.72761036408889       -3.28738141229717       -0.33511680818323
H           -7.97997969470890       -3.28128507176682       -0.02966465008628
O          -10.08623233829739        0.42035430885885       -0.05455883078215
O          -11.09160898498683       -1.10048029985405       -1.33036963172288
