42
 energy: -62.486133508268 gnorm: 0.000480437281 xtb: 6.7.1 (edcfbbe)
N           -1.51138439136519       -0.51204011707831        0.57513605415480
H           -0.75321757610644       -1.17507585919043        0.46643445543900
H           -1.55263804167192       -0.25522948636768        1.55778388780386
H           -2.19756635392199        1.04640269681920       -0.28761766328389
C           -2.78573445195792       -1.10968857539340        0.17059871140659
H           -2.62340167471390       -1.57358229210852       -0.81153002860508
C           -3.33427457116307       -2.15562626714803        1.13525721181651
C           -3.76525914654930        0.03822816593940       -0.05394791895795
H           -3.56675039587911       -1.69914551055722        2.09406438185083
H           -4.24448707590303       -2.58394352153212        0.73267021910295
H           -2.60312458978574       -2.94773690633984        1.28597813963905
O           -3.15982145051637        1.20104930425370       -0.38603023118800
N           -4.99025150004049       -0.17878942091782        0.08036325202849
H           -8.21953572953859        1.35165621264589       -1.20193042653159
C           -6.07960134137821        0.73792784707617       -0.12903398240806
H           -6.24974720062544        1.25015548274718        0.83099375179978
C           -5.90915443904418        1.79968831955091       -1.23831758344959
C           -7.30852153975690       -0.12721325686114       -0.37014539575452
H           -4.84592596188520        1.94588845525738       -1.41664543822043
H           -6.33338027111049        1.41675807071003       -2.17187446818743
C           -6.51947189323207        3.16742553961215       -0.88931211047701
O           -8.38576085960003        0.43036924174319       -0.96541704111581
H           -7.49827605572730        3.03714020494600       -0.40635265466399
C           -5.61741518805322        3.92050547909785        0.08633755549364
C           -6.71743858528380        3.99156462973011       -2.16068414282878
H           -4.65280318424241        4.12031101548471       -0.37399238604105
H           -6.06937487054322        4.86802162647984        0.37108772845810
H           -5.44612136062133        3.33893860742687        0.98900279743004
H           -7.39719707626050        3.49553138954028       -2.85143722162766
H           -7.12989757031117        4.96884442272391       -1.92083824339642
H           -5.76466442153169        4.13678738046471       -2.66466531297397
N           -7.29350248061071       -1.31697431633114        0.02932402971221
H           -6.48513976519004       -2.50261630076329        1.04116325112254
C           -8.39920555083212       -2.22978028344814       -0.10874554730180
H           -9.34738168712365       -1.77901867688724        0.21242297655386
C           -8.55633871124867       -2.73946883854851       -1.54485284489997
C           -8.08374207989716       -3.42582703417575        0.80883904332489
H           -7.60675649312787       -3.13229577350883       -1.90245796043607
H           -9.29987378351620       -3.53134075065019       -1.56354902890369
H           -8.87340901956445       -1.92882640170066       -2.19588295233191
O           -6.87696097854948       -3.36141382748239        1.35236866802178
O           -8.85168198803688       -4.32958667115452        0.99436991607048
