42
 energy: -62.486133511219 gnorm: 0.000480044941 xtb: 6.7.1 (edcfbbe)
N           -1.42817184873333       -1.31338797490233        1.08266008988212
H           -0.43958379074624       -1.49486394444584        0.96057503976711
H           -1.86953519256108       -2.18715151904394        1.35568187732547
H           -2.59997305388374       -0.06189972181182        1.95019499714891
C           -2.02972840353383       -0.81756469652659       -0.15374464503432
H           -1.36736459310260       -0.03594650044653       -0.54810679009757
C           -2.24628134570002       -1.88210379628216       -1.22776840950248
C           -3.33521821399297       -0.13286157754850        0.22928526236292
H           -2.92530180511010       -2.65024657771711       -0.86319566792007
H           -2.68276399613575       -1.42698395921059       -2.11025625098750
H           -1.29914413473739       -2.34536944777121       -1.49758510715276
O           -3.41228567127170        0.25919365890424        1.50848768807165
N           -4.22237915414825        0.04806265238851       -0.64467884901375
H           -5.52141665819230       -0.66879322701331       -2.19617173906137
C           -5.47972425708133        0.69114139005800       -0.31281653459907
H           -5.55424658128714        0.93641903524742        0.75106961625111
C           -5.63656465768718        1.95853999393593       -1.16694071911867
C           -6.54784358280863       -0.31718312014503       -0.66310246559044
H           -4.85507055202773        2.66264435473166       -0.87334863531656
H           -5.46421784759877        1.69329670161954       -2.21372905958839
C           -7.00940843742176        2.62608859138248       -1.03365619914253
O           -6.39043793705287       -0.92746374960507       -1.84951424689521
H           -7.78198575656247        1.88943764658935       -1.27976737157365
C           -7.25745528501510        3.13032445843552        0.38542760300799
C           -7.10907317516840        3.78308271882477       -2.02661061688705
H           -6.46954658946115        3.81777188919248        0.68659409285876
H           -8.20835044374226        3.65508019345415        0.43454802707250
H           -7.29144491854366        2.30616686208686        1.09198199332519
H           -6.96340960958012        3.43356293270828       -3.04637901503484
H           -8.08749761981043        4.25267627062296       -1.96359293822893
H           -6.35320444765103        4.53502645886088       -1.80929593111202
N           -7.47257980207594       -0.56904068207562        0.15338898381280
H           -8.51061360785488       -0.01250752230171        1.52816587232465
C           -8.50719599673351       -1.53522999625685       -0.14702082456645
H           -8.83140406080602       -1.47855114890330       -1.19384559312926
C           -8.03961011471065       -2.96403400645815        0.14913174583647
C           -9.70599098075460       -1.21589213715382        0.75877910495216
H           -7.66731566591622       -3.02748998104187        1.16972131368639
H           -8.87610678963614       -3.64698162091512        0.03115155549941
H           -7.24411899902397       -3.24258596551613       -0.53770979012193
O           -9.44218962472778       -0.29822502530786        1.68082225303588
O          -10.77043605675512       -1.75818373624869        0.65010527130804
