42
 energy: -62.486133523330 gnorm: 0.000478207934 xtb: 6.7.1 (edcfbbe)
N           -1.21729192405180       -1.67937850322097        0.63142974800872
H           -1.23290603653988       -1.53716597402447        1.63613608277720
H           -0.25238949279405       -1.80550253910179        0.34931657556567
H           -2.88299047849013       -2.52338133570309        0.28460623455720
C           -1.81850373553890       -0.54086456666594       -0.06159651305259
H           -1.55246803566772        0.43449045589373        0.36639559783016
C           -1.42093660287879       -0.56636987362511       -1.53788679483580
C           -3.32948659318005       -0.70929633537787        0.03185140742729
H           -1.67907367644496       -1.52647447986983       -1.98058517627728
H           -1.94429834385206        0.22252144231381       -2.06974339978762
H           -0.34952039131373       -0.41089025090511       -1.64422291038807
O           -3.70866067821959       -2.01207534142027        0.14113983951993
N           -4.04989674691367        0.30581915743873       -0.03276797681433
H           -5.22396290220514       -1.88567199663591       -0.80661046527891
C           -5.46718267586139        0.52291496503091        0.01108553854812
H           -5.65593056632419        1.03214646917799        0.96180586843670
C           -5.73625328992863        1.52730365070320       -1.14176161241864
C           -6.47299770639933       -0.60736915472637       -0.11139717685271
H           -4.92105842760264        2.25224654804181       -1.11065552801849
H           -5.65869011368661        0.98047963170824       -2.08520782003986
C           -7.07387670500136        2.26813150529041       -1.10091501902803
O           -6.18131884739772       -1.72976369666996       -0.78189664815806
H           -7.88440880092049        1.53464238536808       -1.08234594634534
C           -7.19394986708496        3.16254824638202        0.12968203749912
C           -7.21780879395053        3.10917249300550       -2.36921297118603
H           -6.38727530829459        3.89265605448805        0.14799226351922
H           -8.14080430783864        3.69612812833981        0.11100772565275
H           -7.15555987729173        2.58059998854514        1.04629225243510
H           -7.16458685695576        2.48390598195191       -3.25748748890262
H           -8.17489072651084        3.62443590032829       -2.37249691284107
H           -6.42643535098136        3.85404452577149       -2.42489534831789
N           -7.63972380569666       -0.35824788091235        0.30956628637891
H           -8.87262448911047        0.80581481677901        0.95490119718382
C           -8.71967695491527       -1.30620498960220        0.14338723153177
H           -8.76043871768083       -1.69983761293577       -0.88038205940888
C           -8.60597132082463       -2.48361366398585        1.11870154310456
C          -10.02942517317041       -0.56057995013117        0.43567173615282
H           -8.52158544004214       -2.11327108662602        2.13860773065920
H           -9.49430574852344       -3.10334416527682        1.03681265841915
H           -7.72687713588792       -3.07770689580000        0.88241526615523
O           -9.84751310405599        0.65702790665729        0.93324594481530
O          -11.11263551431886       -1.04204553499357        0.24895151427601
