42
 energy: -62.486133528176 gnorm: 0.000477634662 xtb: 6.7.1 (edcfbbe)
N           -1.42212172290589       -0.94387253929664       -1.64814372844378
H           -0.51118766671399       -1.38583511268534       -1.67641350114766
H           -1.29739957036130        0.03231278416982       -1.91057199346560
H           -3.25925352144841       -1.27637845932841       -2.24034791413732
C           -2.00257630918520       -1.02024021955685       -0.30747024127467
H           -1.92670721244996       -2.06924335599614        0.01420868690930
C           -1.34000560949571       -0.12300164701301        0.73646679867137
C           -3.48248749018816       -0.69787737248481       -0.45774238313649
H           -1.45618150874566        0.92260509939094        0.46023584409980
H           -1.81868519993074       -0.27199223898395        1.69977786312490
H           -0.28092808934695       -0.35312441710087        0.81604520567425
O           -3.99947798307636       -1.00041667997483       -1.66545009355309
N           -4.10182862383534       -0.16669765101198        0.50020479400485
H           -5.08856836054002       -2.18729915002828        0.20136163297411
C           -5.50657558363991        0.18758024611883        0.45668080921551
H           -5.81037857341198        0.27511611636017        1.50955136667237
C           -5.55799097356656        1.58242024711885       -0.20159953895258
C           -6.41161272938145       -0.85123024138934       -0.17469867318204
H           -4.84950135999414        2.19815810106277        0.35958657105485
H           -5.17370936864555        1.47540969477117       -1.21860455390719
C           -6.90266498859939        2.31075187948485       -0.26277376808399
O           -5.98655354287843       -2.13384281346651       -0.14995763652589
H           -7.51494726671341        1.83261228119292       -1.02862608628274
C           -7.64670673643154        2.27653702137187        1.06787465637201
C           -6.66190036545705        3.75902621434826       -0.69109532967477
H           -7.02699656257005        2.69011019284539        1.86108453928485
H           -8.55641416928307        2.86929086657992        1.00163963130503
H           -7.92036800926527        1.25838663031099        1.32978528616789
H           -6.10120181291985        3.79923424017866       -1.62076923168280
H           -7.61166237999656        4.26742609945349       -0.84129308329403
H           -6.10341041996687        4.29604052505930        0.07184486087921
N           -7.57652830170832       -0.55032095464761       -0.55585933818305
H           -9.03292301525036        0.62184722858966       -0.85897112363171
C           -8.46746478208545       -1.57845977493764       -1.05125693147504
H           -7.95946000051474       -2.26551122779009       -1.73885160833899
C           -9.08549734454573       -2.39000145785893        0.09677593781486
C           -9.62286405251622       -0.88973847889374       -1.78709100922695
H           -9.57334954951112       -1.72198782293908        0.80556047372613
H           -9.82276523621059       -3.07779770454360       -0.30772096382769
H           -8.31251251381377       -2.95401578281712        0.61371713257140
O           -9.77371804000258        0.38650207193213       -1.45771025886649
O          -10.34910277541198       -1.46325404576195       -2.54967334029254
