42
 energy: -62.486133505638 gnorm: 0.000480784836 xtb: 6.7.1 (edcfbbe)
N           -2.34000951036881       -1.87624998775073        1.48964308825225
H           -2.01211436763602       -1.19677183695045        2.16780750301849
H           -1.60448138959718       -2.55773555004468        1.34718356148292
H           -4.22688982731647       -1.85675400342913        1.80297168243308
C           -2.69839937977893       -1.22429846933224        0.23262385760029
H           -2.00164415110753       -0.43291630731320       -0.07547103964415
C           -2.79382705978586       -2.26748281796037       -0.88125940715290
C           -4.07859575372454       -0.60327190057912        0.42190129467948
H           -3.49251346849731       -3.05249059560355       -0.59982319427917
H           -3.14200201797370       -1.79381152603475       -1.79403332891226
H           -1.81987450862499       -2.71586344968587       -1.06667464351407
O           -4.81230095465006       -1.19354113776539        1.37632919189204
N           -4.37780608627197        0.37578780446877       -0.30237109027859
H           -7.05103878741675        0.49379797070732       -2.31983479636862
C           -5.64489514933222        1.07480160348690       -0.37122386791715
H           -5.76718771390533        1.63580804202097        0.56660801303351
C           -5.53893879399807        2.06135684653779       -1.53930764455345
C           -6.83476364296651        0.13366867834015       -0.44286819561127
H           -4.60458910654220        2.60791465799906       -1.40310171022485
H           -5.42615278718158        1.50431930568985       -2.47542919070795
C           -6.70166319814919        3.05962466615177       -1.63731635196229
O           -7.43822415098838       -0.06806456644733       -1.63675598535279
H           -7.65395870277298        2.53448670556666       -1.49804581184958
C           -6.59675265817958        4.13276069543920       -0.55588041567008
C           -6.70729938488543        3.71359027070684       -3.01892656117941
H           -5.66596775981180        4.68618113678847       -0.66030657111881
H           -7.42384965031652        4.83389369338395       -0.63986971014020
H           -6.62775018799846        3.69282893411644        0.43744247595947
H           -6.83914638933069        2.97345674134919       -3.80618509848620
H           -7.51676417838456        4.43548515045047       -3.09470090142188
H           -5.76770133271687        4.23355813433989       -3.19270409244537
N           -7.16956362445363       -0.48302501906731        0.59841284449803
H           -6.73817317849031       -1.02114669872623        2.31769920956805
C           -8.22563483648343       -1.46215347986263        0.64514153368444
H           -9.16699732644693       -1.06436852985570        0.24672233565266
C           -7.86716433574752       -2.74663057945052       -0.11324940488190
C           -8.41495957962193       -1.83249254603912        2.12404150115632
H           -6.91548005127427       -3.13209762770642        0.24775821350009
H           -8.64081183543307       -3.49086182247098        0.05403470159859
H           -7.78691126053302       -2.54092817570667       -1.17744668875150
O           -7.38665181874307       -1.49694759809923        2.88957381057176
O           -9.38674142635882       -2.40544243273166        2.53582566582218
