42
 energy: -62.486133517580 gnorm: 0.000479351451 xtb: 6.7.1 (edcfbbe)
N           -1.06890884442712       -1.61186431054771        0.31981884424005
H           -0.83247210359467       -1.35219439276609        1.27138853560905
H           -0.20670077318778       -1.80843301947972       -0.17410855328027
H           -2.75400752555500       -2.45903485246332        0.45495754686271
C           -1.81831595027066       -0.54547355191275       -0.34265609370993
H           -1.48443763767540        0.46541158702715       -0.07411217637606
C           -1.73366532736823       -0.71251157437154       -1.85989669762748
C           -3.27845844899215       -0.69296609303393        0.06882905862750
H           -2.06916252532451       -1.70678171796648       -2.14719456792990
H           -2.36711335031228        0.02625530859343       -2.34134924593950
H           -0.70943194677818       -0.57557479855284       -2.20045310675939
O           -3.59545917644948       -1.95224180143825        0.46672880699199
N           -4.01759570542057        0.30895305778760       -0.00157159652750
H           -5.09403683313036       -1.66758010390403        1.45030504178484
C           -5.42474643688588        0.52019182757384        0.19977187859089
H           -5.48046239117249        1.11988854484524        1.12362647203242
C           -5.89791688195986        1.40304052790489       -0.96953193800441
C           -6.37186898429362       -0.64659496838078        0.44406884576346
H           -5.03723291301386        1.98788658998395       -1.29740403837703
H           -6.19379969422390        0.74819001597460       -1.78938666375607
C           -7.04831373267762        2.35427614341110       -0.61975268198914
O           -6.05654231709249       -1.57507485424504        1.36207374575461
H           -7.79271186688126        1.80289761463378       -0.03877044639084
C           -6.55379911907889        3.53722503272432        0.21040999021837
C           -7.70497601008346        2.86529883706121       -1.90111157599430
H           -5.83309325123143        4.12218439382827       -0.35727873200762
H           -7.38541648219149        4.18497468392864        0.47802397984432
H           -6.07568381280916        3.20679673506077        1.12924874981602
H           -8.11308146238507        2.04577569095264       -2.48724089807008
H           -8.51577601276386        3.55018175883637       -1.66471623460108
H           -6.97710574417166        3.39594389958879       -2.51156334893046
N           -7.49730485452138       -0.62299288639331       -0.12666471500061
H           -8.53764476654110       -0.05503706870359       -1.48980030174583
C           -8.49663513792587       -1.63523280163168        0.12118586132691
H           -8.05869589101448       -2.63722299650704        0.21539597091090
C           -9.29814033855571       -1.32571027577886        1.39088613934949
C           -9.46136969784541       -1.61698955605095       -1.07299497529123
H           -9.71516764023620       -0.32204610545042        1.33201532817643
H          -10.10831575681205       -2.04262815391191        1.48919277330495
H           -8.64894616366078       -1.39023898267116        2.26055371354140
O           -9.30060435135210       -0.56018300774111       -1.86108296365049
O          -10.29107340378815       -2.46279002893312       -1.26090472047256
