42
 energy: -62.486133511437 gnorm: 0.000480139758 xtb: 6.7.1 (edcfbbe)
N           -2.65175693884596       -0.74070677069724        1.10800573545379
H           -1.80652410270009       -0.91027390776434        0.57663222531655
H           -2.95411009492717       -1.62876749246518        1.50027832350828
H           -3.29014865000896        0.31072684118936        2.41498374919620
C           -3.71403112544857       -0.19342788091377        0.25907332365738
H           -3.25752070716034        0.60052306107754       -0.34984562442530
C           -4.28883183806052       -1.26760092545850       -0.66315910959582
C           -4.69961273603637        0.54966209439311        1.20383504290149
H           -4.68794716665955       -2.08868315673909       -0.07315392787415
H           -5.07614077123535       -0.88897510335456       -1.30426803031039
H           -3.48979153178880       -1.65559176542457       -1.29654311049768
O           -4.17649846789286        0.73959537070220        2.41688038010772
N           -5.81166311691932        1.10641121055616        1.01139112989731
H           -8.56850105328430        0.49376859605622       -1.54189820076324
C           -6.72259304964500        1.07724904891652       -0.08426816829950
H           -7.54269156467995        1.74901583706668        0.22682610834895
C           -6.16907945965925        1.62169857993450       -1.42334888751734
C           -7.37960452306989       -0.28256584917396       -0.23995109131550
H           -5.13503996290695        1.30083194606791       -1.54393194520589
H           -6.74089822154357        1.20789874547272       -2.26034299585196
C           -6.21704335940021        3.15253507356501       -1.50374580017849
O           -8.38960197245462       -0.36482257497387       -1.13726801569610
H           -7.24024893477819        3.48253172568753       -1.28638898412913
C           -5.27742544443211        3.78484242782934       -0.48152284453932
C           -5.85385991711751        3.61080631836010       -2.91546742115518
H           -4.24424990034877        3.53384424258040       -0.71377626307086
H           -5.37728809134849        4.86743848191163       -0.49499757921899
H           -5.49963692278357        3.42429834951656        0.51924649069169
H           -6.54826324854991        3.20721569475753       -3.64976776496606
H           -5.88325339635627        4.69552315137129       -2.97899569417919
H           -4.85022972276629        3.28121352473988       -3.17554181389388
N           -7.03192683824435       -1.22539442771182        0.51086296465264
H           -6.03813474243036       -1.68656266539969        1.94594693433035
C           -7.60460708134757       -2.54767335932294        0.52385212113984
H           -8.63424436780785       -2.50326042666485        0.90550045701814
C           -7.61525716510265       -3.26816742066806       -0.82586042797724
C           -6.77894009673896       -3.35866078719016        1.54180063142551
H           -6.62159423351946       -3.25080741618124       -1.26877426330760
H           -7.90905911773820       -4.30172046931234       -0.66534345461249
H           -8.31492665059184       -2.79183339980816       -1.50634758712930
O           -5.92579527554699       -2.62153358999542        2.24531786859381
O           -6.88764681162275       -4.54519619072749        1.67831358128932
