42
 energy: -62.486133501187 gnorm: 0.000481952259 xtb: 6.7.1 (edcfbbe)
N           -0.92488628696818       -0.48371142742147       -0.43894066257330
H           -0.16747101774131       -0.81811123130034       -1.02290975321246
H           -0.82097939459908       -0.92123448311599        0.47295379964994
H           -1.84224952269090        1.17127286466581        0.03331982034015
C           -2.22101034978209       -0.84833874994813       -1.01304121006679
H           -2.20538293401094       -0.53738456669715       -2.06587199233720
C           -2.57157750703337       -2.33094433956919       -0.93448362783812
C           -3.27626550559868        0.01056726559353       -0.33350574278837
H           -2.53447830108079       -2.67026071435197        0.09849631914547
H           -3.58157846546629       -2.47202571994117       -1.30334695064961
H           -1.87624917019986       -2.92093799226019       -1.52801509081888
O           -2.81245993198431        1.18325444910364        0.15173188159875
N           -4.45633704673755       -0.40605314264939       -0.26874653745823
H           -7.43671113456729        0.25440253755080        1.80660866256097
C           -5.54388038839574        0.35947938372807        0.28154216310041
H           -5.36875669305071        0.54505150839704        1.35266593664826
C           -5.71970532501137        1.70512259481409       -0.45808151500374
C           -6.80414850421392       -0.45202989523005        0.09717015803262
H           -4.78568244584441        2.26100549943899       -0.37113114708290
H           -5.87698503452458        1.45893709266470       -1.51004906622402
C           -6.87111732997111        2.58680411303356        0.03634869022115
O           -7.75455620192931       -0.32390594735246        1.10289716478869
H           -7.80033899534406        2.00673157323991        0.04673822238016
C           -6.60445534851072        3.13964883467332        1.43619594308960
C           -7.06482997680084        3.74575317387977       -0.94080929166000
H           -5.70567856861530        3.75264867370189        1.42919816788839
H           -7.43801509490928        3.75764136814062        1.76274949710475
H           -6.46421535572019        2.35032903473806        2.17260155048814
H           -7.31443748326031        3.37246862320518       -1.93071135744826
H           -7.87107790588158        4.39452518520436       -0.60660494099047
H           -6.15450012318812        4.33691219533197       -1.01374367267087
N           -6.94444614042633       -1.16265448837472       -0.91696538474041
H           -9.19236694982576       -0.29445125635339        0.01663773733004
C           -8.06433266398835       -1.99873708723875       -1.25854321478334
H           -7.74537273691755       -2.56244630752609       -2.14290202557853
C           -8.47772575198061       -2.98560926152471       -0.15769065070920
C           -9.29991959673457       -1.18843122497215       -1.67981046929722
H           -8.85760297834062       -2.46825249150784        0.72062580590398
H           -9.24949082223268       -3.65030424122462       -0.53798439569557
H           -7.61321580840277       -3.57654655479811        0.13573253518978
O           -9.73906193780860       -0.29567906252174       -0.79228499554642
O           -9.85263850867202       -1.35653200430788       -2.72910533451506
