42
 energy: -62.486133502735 gnorm: 0.000481240679 xtb: 6.7.1 (edcfbbe)
N           -1.86063126635844       -2.21423836002195       -1.19248044342008
H           -0.91858915028934       -2.57915004471447       -1.12480596068928
H           -2.01516082448344       -1.94402784817653       -2.15992742391828
H           -3.67172440822364       -2.64470108652738       -0.71309209275601
C           -2.03715666048952       -1.05450058569488       -0.32085651835842
H           -1.63056303728964       -1.32390748645337        0.66333392192658
C           -1.36253932387376        0.22456463313521       -0.81066018846491
C           -3.53811875789255       -0.85639230397725       -0.13838663640516
H           -1.73402040836461        0.48767087370572       -1.79917619079109
H           -1.59549407294136        1.03743447307705       -0.13119297565943
H           -0.28362957277630        0.09075610548959       -0.85978431356388
O           -4.27845450182393       -1.95516990530000       -0.37524731637297
N           -3.96607868289575        0.27017067436156        0.21371146623023
H           -5.19084401560518       -1.22901908060532        1.99248029215245
C           -5.35689459908607        0.60816512748172        0.42379049653549
H           -5.37535279500841        1.15763921211375        1.37723404772170
C           -5.77530935419112        1.55901027668292       -0.70719903204721
C           -6.29756120822067       -0.56903454376843        0.56973266316889
H           -4.93447771571772        2.22910219554046       -0.89601966928501
H           -5.93568265184183        0.95654002004404       -1.60213695016356
C           -7.02935608441689        2.38663294212770       -0.40505869144087
O           -6.05447286079770       -1.40877299511683        1.60188764426705
H           -7.78269955099838        1.72825643231204        0.03624623403581
C           -6.72683652710592        3.51725265424859        0.57610245595542
C           -7.58763855359589        2.96451620296448       -1.70448637493444
H           -5.98644106383806        4.19513053591393        0.15634941088739
H           -7.62990768509854        4.08537322573650        0.78683537424334
H           -6.34416407975438        3.13379526302251        1.51857073041343
H           -7.87576223790057        2.17223071660522       -2.39099924499167
H           -8.46444369203552        3.57507898645339       -1.50273268748778
H           -6.84144581872772        3.58889007261023       -2.19162041262874
N           -7.30947948650210       -0.67209030271656       -0.16964879673230
H           -8.13629653964300       -0.24056239179035       -1.70356617358494
C           -8.25617377288995       -1.75392990071647       -0.03530864862874
H           -7.75728460394007       -2.71452980272263        0.14278349504769
C           -9.25180255409373       -1.49278360771564        1.10037151189005
C           -9.03683148365461       -1.83110212991851       -1.35593664939845
H           -9.72607953917816       -0.52269497599732        0.96363607798951
H          -10.01528975675413       -2.26547040817303        1.09331437875036
H           -8.73389959698314       -1.50351904461388        2.05613698037602
O           -8.81099153669862       -0.79913260545135       -2.16060233620790
O           -9.79061122961266       -2.72550701759233       -1.62265648682158
