42
 energy: -62.486133515050 gnorm: 0.000479611666 xtb: 6.7.1 (edcfbbe)
N           -0.99315549767057       -0.87092563865310        0.75489060844938
H           -0.01484063678699       -0.95537033951610        0.50742239917145
H           -1.27857719849657       -1.74833144390083        1.18103210461199
H           -2.18348799476887        0.35805127934628        1.64376857116663
C           -1.81373206848688       -0.59868181533851       -0.42360556235426
H           -1.32192881542218        0.20759731461967       -0.98355435281356
C           -2.02095133542913       -1.79694450515406       -1.34911405538160
C           -3.13567410044357       -0.03503925289049        0.07912892645648
H           -2.53430335400810       -2.59856509530734       -0.82100245626960
H           -2.62014415667383       -1.50116870060780       -2.20403572305463
H           -1.06126884420037       -2.16833954428509       -1.70324716162272
O           -3.08466281059843        0.51916539971278        1.29729914725882
N           -4.15565074456910       -0.07831558354586       -0.65841601300823
H           -5.06335470861640       -1.56586331931470       -1.30894142114225
C           -5.43423416687019        0.43867467555852       -0.21105623468925
H           -5.42709111884110        0.69052892637533        0.85535300622834
C           -5.72361186456285        1.70472506045394       -1.04055998023962
C           -6.45481839138711       -0.65691673049737       -0.45258195679986
H           -4.91788456623758        2.41218530797061       -0.82745644307505
H           -5.65312980264317        1.43106021350351       -2.09622403666187
C           -7.06961511866011        2.38564598624747       -0.78536735321556
O           -5.99942974623966       -1.74793144651826       -1.08546444392004
H           -7.86680753107561        1.69383054723673       -1.06756151296767
C           -7.24636777782247        2.77063424358759        0.68071616827078
C           -7.17801428213443        3.62758712456574       -1.66934084012872
H           -6.43739474415543        3.42369244386001        1.00205509255408
H           -8.18729812629979        3.29761086030050        0.81715942275447
H           -7.25467768719154        1.88956225852684        1.31600696747157
H           -7.05782444326018        3.36777660549041       -2.71851273197055
H           -8.15120465768304        4.09508985251917       -1.54267828858251
H           -6.41145210568971        4.35338762575234       -1.40492395131625
N           -7.65892159990266       -0.48495200597017       -0.11863560996267
H           -9.02726023275663        0.56910538599282        0.50277130229070
C           -8.65940010774204       -1.49794294866352       -0.37608103566607
H           -8.58636254792840       -1.88982307056106       -1.39872774826835
C           -8.55409494810659       -2.66894049801969        0.60780043406307
C          -10.03452958706055       -0.84109389240802       -0.19285479969613
H           -8.57623915950612       -2.29732737140239        1.63051492691089
H           -9.39191532018779       -3.34328558840512        0.45519353749799
H           -7.62300213838013       -3.20558612850901        0.44443929718621
O           -9.98090988863835        0.35642503589388        0.37747009934659
O          -11.06096733237247       -1.37301706864594       -0.51414329048057
