42
 energy: -62.486133504846 gnorm: 0.000480802944 xtb: 6.7.1 (edcfbbe)
N           -1.05044024876073       -0.74276285312358        0.81674988240659
H           -0.07918932307706       -0.88409915674869        0.56752212483184
H           -1.33383160318776       -1.52480284409395        1.40085996599478
H           -2.22309968750460        0.62133432818783        1.50767738838992
C           -1.89537908416726       -0.68143212327864       -0.37460300408728
H           -1.40688280885031       -0.00151143717638       -1.08506299790587
C           -2.13659562010137       -2.02939512459818       -1.05188320102755
C           -3.20029248413621       -0.01708684895854        0.04136626318705
H           -2.65986988411276       -2.70120735029056       -0.37470611584734
H           -2.74547573680930       -1.89336459931486       -1.93907466844488
H           -1.18909019096583       -2.48192489086767       -1.33825557482347
O           -3.12559337946049        0.73579989809423        1.14700293529362
N           -4.23665630343288       -0.17826419059604       -0.65486102668547
H           -5.39116223289035       -1.06147498262064       -2.01071965735575
C           -5.48797362661451        0.45142889328904       -0.28396402950963
H           -5.54095219805832        0.65563346393520        0.79005789743229
C           -5.65750839018020        1.76349756707891       -1.07033678724769
C           -6.57203469414625       -0.52776618561961       -0.66901448331050
H           -4.82971046645309        2.42237803059336       -0.79877622101071
H           -5.56802271171700        1.53608202306871       -2.13627185517193
C           -6.98775597936987        2.47869193765983       -0.81521599231719
O           -6.31855672504971       -1.24491306811333       -1.77268520209085
H           -7.80586760629217        1.78469662001020       -1.03302239910394
C           -7.11497791182389        2.94035401962524        0.63401680302065
C           -7.10573830752235        3.67639642937655       -1.75674350717146
H           -6.29276873125505        3.60424198463500        0.89361984323580
H           -8.04926944966687        3.47837483193583        0.77316319854320
H           -7.10844238948018        2.09586095735681        1.31702148504756
H           -7.04946043951978        3.36020736921111       -2.79594346388803
H           -8.05539034373421        4.18317143193268       -1.60538676314260
H           -6.30355939895366        4.38738121906608       -1.56920630752144
N           -7.60572298237637       -0.63626620778292        0.04328113419438
H           -8.81043137054979        0.24311312401870        1.08585659418836
C           -8.67812552103705       -1.53989631352645       -0.31173923533419
H           -8.78758538220117       -1.65139117555065       -1.39797178867598
C           -8.45847917156620       -2.92259329873809        0.31094904041063
C           -9.97800482233569       -0.95306679369111        0.25815858089830
H           -8.30464660995013       -2.82513910075385        1.38371024887171
H           -9.33274588687164       -3.54150447891513        0.12994165533020
H           -7.58337232505061       -3.39249486386343       -0.13142591150278
O           -9.78240892101464        0.07756247142566        1.07226594451706
O          -11.06312030980861       -1.39587455548224        0.00258419117766
