42
 energy: -62.486133508423 gnorm: 0.000480747240 xtb: 6.7.1 (edcfbbe)
N           -1.28454174816344       -0.76101344412911       -0.09444514155391
H           -0.60224735120907       -1.50148205699514       -0.20422464130285
H           -1.09417834196651       -0.29995335705151        0.79127829358040
H           -2.07473879464828        0.65023138922954       -1.13385403348481
C           -2.64422069430049       -1.30166032721708       -0.08464370202967
H           -2.72769102142772       -1.97767974233157       -0.94621770537127
C           -3.02761719194634       -2.05509961192121        1.18513294856753
C           -3.59175395343329       -0.13640039679954       -0.35767710882566
H           -2.92075690632225       -1.40688857653820        2.05207804935694
H           -4.06482442726624       -2.36421938306099        1.11906580850666
H           -2.39424925413997       -2.93043904649017        1.31454964123296
O           -3.02586834332979        0.86911201749276       -1.05915289377487
N           -4.77033125123381       -0.21928139323505        0.05529601338937
H           -6.95246214263602        0.70636111736959       -2.32883206335820
C           -5.84508246209456        0.72929513756686       -0.10750533337514
H           -6.10397096682515        1.02520747980885        0.91769256438623
C           -5.58851396567970        1.98757392990459       -0.94495498847416
C           -7.00584700661390       -0.12567089568311       -0.59995925698725
H           -4.69957201251539        2.47973207580388       -0.54894138394693
H           -5.34514596945504        1.70930259401871       -1.97601513035901
C           -6.75824241840387        2.98434257084352       -0.91515779922975
O           -7.43077680802377        0.00214201809783       -1.87182726163239
H           -7.70808366340657        2.44788500866936       -1.02603154017327
C           -6.79905704865530        3.73944313602036        0.41180921273213
C           -6.62347912468645        3.97533169173153       -2.07112820592127
H           -5.87770305710495        4.29964029553494        0.55732809718884
H           -7.63064928161381        4.44016069238249        0.42082860166878
H           -6.92475893021791        3.05738915660602        1.24885873326618
H           -6.65654447608853        3.46748915852595       -3.03344716486441
H           -7.43153514321117        4.70243122195952       -2.04480113082833
H           -5.67884086763916        4.51019954118165       -1.99976940133445
N           -7.47240241080773       -0.98272692451364        0.19342519258811
H           -7.50277512047701       -1.70629132462606        1.83616990257004
C           -8.51161359060071       -1.91453248861047       -0.17500730192916
H           -9.36863244853341       -1.40735374368629       -0.63589676251349
C           -8.00608675411588       -2.99990614722511       -1.13230535503137
C           -8.97520384331511       -2.59594283511906        1.12305127211148
H           -7.12046021900682       -3.47522620787220       -0.71538332054196
H           -8.78301668412081       -3.74696740225629       -1.26848859683415
H           -7.75315926007373       -2.56031645457560       -2.09341572383432
O           -8.19105251759941       -2.33701247044599        2.16090997308527
O           -9.93850378468040       -3.30923182605696        1.18054383563475
