42
 energy: -62.486133510271 gnorm: 0.000480317455 xtb: 6.7.1 (edcfbbe)
N           -2.09945993709568       -2.37693278723790       -1.05088605858950
H           -1.13416674795770       -2.68360713885364       -1.05161940928057
H           -2.39336728405238       -2.28499524377115       -2.01975832286952
H           -3.79954158337845       -2.76309169474825       -0.29218116292891
C           -2.23902305980634       -1.09002101452573       -0.37141008354092
H           -1.70789682819570       -1.16815082451602        0.58577190378798
C           -1.69360002752073        0.10099403232546       -1.15551480498591
C           -3.72464276954977       -0.90948910163154       -0.04609258752418
H           -2.19382857776720        0.17258288292844       -2.11909314364660
H           -1.88664890593085        1.01291205396553       -0.60176378093886
H           -0.62258948863909       -0.00565736655963       -1.31763797096114
O           -4.40741439268403       -2.05962953643866        0.01727239400865
N           -4.11925057641803        0.24955547451027        0.22463373556048
H           -7.22702741676765        0.69859886048897        2.09944749812164
C           -5.44249391992531        0.75543844270232        0.43974026192507
H           -5.38862977829708        1.29228558898307        1.39886586604528
C           -5.70182915781506        1.77735537634526       -0.69056937099437
C           -6.61100020075856       -0.20345532993846        0.47467763970162
H           -4.82383803096903        2.42048860694039       -0.76341531587576
H           -5.78297629318359        1.20367567579113       -1.61500769822721
C           -6.96030012320342        2.63216861428750       -0.50886835977129
O           -7.51597703182384       -0.00977334732128        1.51227313532353
H           -7.81355940504245        1.97810820171281       -0.29735471788790
C           -6.80714933831323        3.63752706996828        0.63154466176703
C           -7.25688340094936        3.37461275954221       -1.81074862542505
H           -5.97881196119766        4.31236519959166        0.42681007121265
H           -7.71361424676244        4.22964284500217        0.73521374840589
H           -6.61621977252133        3.14902201859975        1.58472713713902
H           -7.43024305408298        2.67037190847414       -2.62039640451905
H           -8.14352560632610        3.99463867062648       -1.70187976936803
H           -6.41979365775290        4.01446482258401       -2.08170873674526
N           -6.72102172618539       -1.09020797164442       -0.39484238931759
H           -9.00524363651809       -0.33405605961402        0.54837181516344
C           -7.74618735551234       -2.09140574137214       -0.51148082539270
H           -7.40524019471441       -2.76142953115795       -1.30914818165626
C           -7.97373953030816       -2.90969737621023        0.76630775302258
C           -9.08563506124634       -1.50143936612614       -0.97481663909796
H           -8.38024466439695       -2.29580564718386        1.56721379468194
H           -8.66382388807336       -3.72375357694855        0.55894772264536
H           -7.02192235059201       -3.32102732746888        1.09395015597916
O           -9.58684098694704       -0.52979534205112       -0.21129861279571
O           -9.66098928997144       -1.89541378709137       -1.94934144402504
