42
 energy: -62.486133510946 gnorm: 0.000479394003 xtb: 6.7.1 (edcfbbe)
N           -0.86897385366002       -0.00827853604935       -1.09715230421632
H           -0.11988279039835       -0.46079783540746       -1.60688612760623
H           -0.53673376127701        0.16398061481038       -0.15156295470268
H           -2.14945349787497        1.41571160287446       -1.36463051622354
C           -2.06216726019895       -0.85201465462368       -1.05828732737480
H           -2.25587831699616       -1.18167299716431       -2.08815383593079
C           -1.94788466047428       -2.07769001230634       -0.15437319266911
C           -3.23185185933849        0.05056864969507       -0.66984750054558
H           -1.84108605196413       -1.77234947999734        0.88409851461264
H           -2.83913154571563       -2.68895958070132       -0.24658776210675
H           -1.08281703095819       -2.67354979794276       -0.43953841775382
O           -3.05821227970750        1.33643363751996       -1.00995169078404
N           -4.21753075216615       -0.46698548774464       -0.09149990502069
H           -5.21816729305472       -2.13060232874173        0.55488456498990
C           -5.46460629841598        0.15589805585573        0.30219940871253
H           -5.43582270381957        0.21157611095437        1.40139280500813
C           -5.80838951739537        1.53297037056586       -0.26862248521015
C           -6.49583035094362       -0.90214137957621       -0.05626377936457
H           -4.94169196389089        2.18518079816287       -0.16749959884067
H           -6.01716660397362        1.41363894284294       -1.33274069618385
C           -7.00565818222300        2.19455663833278        0.42659756127333
O           -6.15867183572274       -2.15190998847638        0.30789161692502
H           -7.78790641065241        1.44447158448709        0.57104196102887
C           -6.61037377030635        2.75944984376006        1.79016552652954
C           -7.55740785301103        3.31447850693485       -0.45360549706214
H           -5.84332010256661        3.52302153595707        1.67594367325069
H           -7.47223207143557        3.21127834627381        2.27572718735418
H           -6.22547820376363        1.98274739877516        2.44694386333471
H           -7.89153566331764        2.92769937707573       -1.41320939796031
H           -8.40233674400297        3.79825055501386        0.03090135719616
H           -6.79033820476340        4.06494247814730       -0.63346151195137
N           -7.53518871052055       -0.60742724756705       -0.69976857247136
H           -8.45971037640683        0.57361782853435       -1.70750714506632
C           -8.50659324996117       -1.60355816127433       -1.08747730545535
H           -8.02905876879440       -2.51038491999571       -1.48039806180199
C           -9.41529605539001       -1.99265558966743        0.08372049355600
C           -9.37487327435547       -0.97715965939475       -2.18907150262143
H           -9.86908394601442       -1.10205310188012        0.51454648394463
H          -10.19959669506768       -2.65352177036354       -0.27412450914278
H           -8.83358982989005       -2.50074189144008        0.84890502324262
O           -9.17647572522275        0.32665310762156       -2.33978023966334
O          -10.16818719584542       -1.60469740517294       -2.83402317886429
