42
 energy: -62.486133510944 gnorm: 0.000480424607 xtb: 6.7.1 (edcfbbe)
N           -1.63758406939797       -0.45486145690600        1.09618647553954
H           -0.80458416720897       -1.02191115646047        0.99081190544932
H           -1.90074896042639       -0.48252819266726        2.07772650773597
H           -2.33828783138325        1.26358501808619        0.52399746198984
C           -2.73244802129964       -0.98588913225671        0.28237616646928
H           -2.33611507811662       -1.12445789084842       -0.73290428276248
C           -3.32276435703726       -2.30286658340826        0.77530605661859
C           -3.78464835794485        0.11070764081298        0.18809158316660
H           -3.73876189636839       -2.18037961707228        1.77197505993499
H           -4.12071390463516       -2.61377005427715        0.11125706425562
H           -2.55584832200696       -3.07444666017147        0.80169515774987
O           -3.28078227817580        1.36084085018868        0.28137898888154
N           -4.98777913746609       -0.20764920603370        0.04597262282626
H           -8.13804888862634        1.33332703505018       -1.36059738147779
C           -6.08420601035613        0.71542781528516       -0.11559824026620
H           -6.28945085918260        1.18218536793445        0.86000281033798
C           -5.85006943516143        1.82574954022999       -1.16248354709615
C           -7.29095301627828       -0.14375978577403       -0.46221503270809
H           -4.77926039661094        2.01300683437082       -1.22875949279349
H           -6.16633531469121        1.46151426254261       -2.14497042184273
C           -6.54063142887502        3.15932653076658       -0.82968172696910
O           -8.32164272074399        0.41263090788646       -1.13514661636764
H           -7.54248375138143        2.97836690502228       -0.41626488826923
C           -5.73944094324709        3.92593237414810        0.22043862492065
C           -6.68664668249146        4.00226757991737       -2.09598427982193
H           -4.76216914253405        4.19279425981561       -0.17438641382429
H           -6.25895158303100        4.83760704410649        0.50694230800780
H           -5.58800389282871        3.32255739915030        1.11194601455725
H           -7.30358435985191        3.49858293350865       -2.83848032890890
H           -7.14683594257607        4.95999905980560       -1.86515411872246
H           -5.70954913952976        4.18979669758668       -2.53534029612091
N           -7.29703599719845       -1.33410919595412       -0.06439437330954
H           -6.43813728527673       -2.58075510623103        0.83651681977140
C           -8.36654911850910       -2.27094614112372       -0.29165380247393
H           -9.32710008550874       -1.88233210308868        0.07084670262085
C           -8.51815270880053       -2.66212451215714       -1.76518557115075
C           -8.00834323829287       -3.53069146596171        0.51988179956816
H           -7.55877430328898       -2.98965914831991       -2.16024700610114
H           -9.23317286781480       -3.47606038364615       -1.84568878187867
H           -8.86963005215364       -1.81204806897024       -2.34369585058420
O           -6.80552735586507       -3.47327951144956        1.07181527179003
O           -8.74443840034824       -4.47370685798628        0.62260280203169
