42
 energy: -62.486143125405 gnorm: 0.000732968073 xtb: 6.7.1 (edcfbbe)
N           -2.40470474251923       -0.69938235455420       -2.01407642343861
H           -2.46163086658228        0.18153895228290       -2.51510535998849
H           -2.46382854661041       -1.44713175848933       -2.69604306474915
H           -1.38239739416190       -0.30445893054846       -0.45027394680711
C           -3.49262019543714       -0.81115547394195       -1.04008879851300
H           -4.46335624399362       -0.49501708966890       -1.44002078031888
C           -3.57614969152461       -2.26406989230963       -0.56577981266421
C           -3.10520452323755        0.07219287155408        0.15172027328432
H           -2.59181948226139       -2.60604643440562       -0.25204328468137
H           -4.25843292488924       -2.35949080259608        0.27371096189703
H           -3.93177057336929       -2.90260671339237       -1.37226919812948
O           -1.78337759502964        0.12946462626222        0.33363982318261
N           -3.81870484041666        0.71642432590535        0.96565184086765
H           -5.62502494772323       -0.91112220318195        2.57224699000377
C           -5.24824432189278        0.88003792739384        1.01524209380156
H           -5.44938596211613        1.20515307071233        2.04678734632330
C           -5.65986308978711        2.00857279691992        0.05438629509238
C           -6.03382516485709       -0.38871493409739        0.76826965226105
H           -4.99741928156426        2.85514570076935        0.24274641040733
H           -5.48203955626830        1.66311678995662       -0.96499049663803
C           -7.11895510373745        2.45551728655416        0.19093013428883
O           -6.11768488777608       -1.24619556461637        1.81167377336491
H           -7.76016772687597        1.56888961243887        0.15568231620794
C           -7.36615753493207        3.19024248648454        1.50653910981750
C           -7.48150366265533        3.36293994947596       -0.98391994008212
H           -6.70344733733129        4.04864344747424        1.59083512102879
H           -8.39331528464186        3.54499587341023        1.55062734819479
H           -7.19995612751796        2.54194200219536        2.36287506664745
H           -7.35364558693307        2.84279810287112       -1.93041376362668
H           -8.51685946623330        3.68675034345126       -0.90981758140466
H           -6.84632217373889        4.24597442925601       -0.98852359481096
N           -6.50333947416536       -0.65393119649793       -0.36950072005808
H           -6.75326660366468       -0.28255197421707       -2.18086197630045
C           -7.17102632718928       -1.90119801465231       -0.66211427454534
H           -6.75014543212527       -2.74918212256889       -0.10946242572015
C           -8.67184465356270       -1.80239663183651       -0.36322381899700
C           -7.00351123167209       -2.13334111844660       -2.16818392729284
H           -9.10777132144577       -0.96090984094416       -0.89884899175236
H           -9.16544721543081       -2.71820814120374       -0.67626311820144
H           -8.82402573812250       -1.65949471256321        0.70398320257668
O           -6.81658971869425       -1.00274733375451       -2.84693467037639
O           -7.05134835084063       -3.21206860134791       -2.68704149147377
