42
 energy: -62.486133510884 gnorm: 0.000480192521 xtb: 6.7.1 (edcfbbe)
N           -1.92286633551430       -1.67994340890757        1.56960903809471
H           -0.93633027760048       -1.83256355088876        1.73688598104503
H           -2.34083571891597       -2.58037505709625        1.35108659876395
H           -3.47461853306665       -0.84782190837437        2.37546467389714
C           -2.13556069140544       -0.74380227177959        0.46941172762952
H           -1.45354842733956        0.10245332609392        0.61849213555064
C           -1.90808973916604       -1.32933501846268       -0.92474203708593
C           -3.54666196344257       -0.19346490516557        0.61376586452138
H           -2.53146085117922       -2.21080346594505       -1.07013925768926
H           -2.16872797924706       -0.58798984340993       -1.67307609956626
H           -0.86632557864778       -1.61594228667093       -1.05143493621511
O           -4.11068668336507       -0.35807714594806        1.81552637498029
N           -4.09684107030180        0.39630620579447       -0.35889414207420
H           -5.11146265705321       -1.26907118272735       -1.04333345549440
C           -5.44927419382144        0.89980142835951       -0.19979656962087
H           -5.54318545921612        1.50618233807044        0.70649752162146
C           -5.78828502145104        1.73937915560172       -1.44291057226927
C           -6.42336774631513       -0.25057551325918       -0.08837510025869
H           -4.93870753514544        2.39644441826009       -1.63573028512060
H           -5.88065615819223        1.06344785232156       -2.29670905801283
C           -7.06915015221984        2.56441958211590       -1.29538746805535
O           -5.99040895467512       -1.42736176608364       -0.66050655300477
H           -7.82730762196460        1.93384571455660       -0.82074873271169
C           -6.83950131987276        3.79013426441509       -0.41525078490126
C           -7.57124622760854        2.99712645766176       -2.67192215597693
H           -6.08919777995492        4.44266907521625       -0.85790764460141
H           -7.76304675699441        4.35348231366493       -0.30691890645815
H           -6.50514863729595        3.49955521595940        0.57655615959221
H           -7.79010539510324        2.13238964673738       -3.29456852625994
H           -8.47969796784743        3.58680219894573       -2.57653824968044
H           -6.82112296375111        3.60289640829961       -3.17677851224019
N           -7.55636257261513       -0.05826677395919        0.40343479410301
H           -6.73422656971816       -2.49523722737948        0.57642282951568
C           -8.63545284166424       -1.01022902353567        0.49377558734849
H           -9.49161863870962       -0.44064777361755        0.87362106604695
C           -9.01611169123234       -1.65405486615001       -0.84703724541856
C           -8.37004187137956       -2.12786932152813        1.51337355355384
H           -8.20645660056841       -2.26681459299926       -1.23763338282406
H           -9.89762185064810       -2.27607218478909       -0.71305051283722
H           -9.24050651669783       -0.87348109176969       -1.57076788955870
O           -7.24649370048814       -2.82421813484306        1.33896659367019
O           -9.13787203880541       -2.38534303262338        2.39620258662199
