42
 energy: -62.486132322166 gnorm: 0.000616095042 xtb: 6.7.1 (edcfbbe)
N           -0.81802493431213       -0.25431645892230        0.20749772523152
H            0.06380168081256       -0.53581673362494       -0.20290580903077
H           -0.84865187392828       -0.62630678936703        1.15298120594186
H           -1.90028293356832        1.31046054069209        0.42405198434907
C           -1.94726223344311       -0.77118221232936       -0.56410636980644
H           -1.73890850680856       -0.56212802828268       -1.62221615705742
C           -2.20721124519099       -2.26547327019601       -0.38570919930972
C           -3.16398919404036        0.06647912206183       -0.18709623209491
H           -2.39691937660872       -2.48833187235932        0.66190674000959
H           -3.07964088001345       -2.56063095980051       -0.95800916862503
H           -1.34743270388184       -2.84184240578793       -0.72131041088526
O           -2.87445112528867        1.27045489634757        0.32694136717397
N           -4.31599423843496       -0.40773149091141       -0.35887086633575
H           -5.41423226025992       -1.14081462417600       -1.89083341268394
C           -5.53701002458851        0.33009048786270       -0.10831994922034
H           -5.66408801320276        0.50265663098756        0.96430062277658
C           -5.58975785939930        1.67592807053174       -0.85839661012949
C           -6.65125613097350       -0.55832012336914       -0.61634089136287
H           -4.77069164718596        2.29914103290442       -0.49820951425643
H           -5.42045021685725        1.47790682922071       -1.92146735017131
C           -6.90883967719080        2.43716344963970       -0.69366018672055
O           -6.37135274522053       -1.23346625574248       -1.74140632323438
H           -7.73538856882850        1.78772062666431       -0.99930746549955
C           -7.13668840524566        2.86457723391764        0.75367812360572
C           -6.89525154161285        3.66418918901720       -1.60454458476054
H           -6.30453147510178        3.47186736875519        1.10409867499133
H           -8.04806919142627        3.45203515458478        0.83058957331596
H           -7.23788767666415        2.00147782383373        1.40542903689472
H           -6.76609782998934        3.37362000736606       -2.64486142573643
H           -7.83068835118477        4.21097258156832       -1.51723853663608
H           -6.08049754223066        4.33126929182233       -1.32999129265124
N           -7.72854197143552       -0.65649016177605        0.02941625377384
H           -8.91732884204865        0.13375812093415        1.14126596294282
C           -8.81795553176874       -1.48907352901959       -0.43329264622290
H           -8.92705274793218       -1.45881664774982       -1.52475666098949
C           -8.62781750077616       -2.94498138584760        0.00505417317178
C          -10.10716645733438       -0.95146624454678        0.20576106408760
H           -8.46990475096908       -2.99009733169736        1.08069151494624
H           -9.51657584476271       -3.51538212754666       -0.24981792304609
H           -7.76433800513739       -3.37292706309817       -0.49807334285873
O           -9.89254856573535       -0.01461921251627        1.12168206837198
O          -11.19921431989475       -1.35357937700080       -0.08566874910391
