42
 energy: -62.486133510436 gnorm: 0.000480393880 xtb: 6.7.1 (edcfbbe)
N           -2.30326953967451       -1.35691657108710        1.68620549903939
H           -1.80227401217506       -0.53192613627607        1.99690993207384
H           -1.65425462390642       -2.13383470659477        1.67737529042508
H           -4.11699775615111       -1.07751428505350        2.27402614345167
C           -2.88291440562466       -1.14589521912096        0.36215875358705
H           -2.22839868779942       -0.60503960341861       -0.33408736788498
C           -3.27221236097856       -2.49231441910881       -0.25072290479604
C           -4.16138308647541       -0.34968807238238        0.54966371003777
H           -3.92688713594635       -3.03629573847791        0.42643086224920
H           -3.79344517185875       -2.32552105007699       -1.18825124523395
H           -2.38541443227052       -3.09305444494206       -0.44153357277124
O           -4.74575979463426       -0.53603969907291        1.74827235014762
N           -4.53935896227353        0.42715774098891       -0.36131995742660
H           -7.99117346485298        1.28876249486415       -1.49846554116849
C           -5.82681752975319        1.08115711478799       -0.36054784036626
H           -5.96503707982555        1.62604632160795        0.58985066125926
C           -5.83703920102479        2.07794801589768       -1.53099597163365
C           -6.96699057905684        0.07527264957911       -0.40740392727266
H           -4.79584634684634        2.34098843766268       -1.72231019841461
H           -6.19626908776185        1.57800690774278       -2.43515053242194
C           -6.63422025133803        3.36550773561446       -1.26520588916251
O           -8.08136124132475        0.41789478350155       -1.09202733033331
H           -7.56368806701778        3.13025590552011       -0.72930324052459
C           -5.82727834104669        4.32427085999713       -0.39172299320422
C           -6.99744421783911        4.04309898684333       -2.58597909137261
H           -4.92821999672557        4.64239970823583       -0.91465419890939
H           -6.41518924812461        5.20679860080396       -0.14989103983687
H           -5.52957430811545        3.84734870395503        0.53892951370091
H           -7.62124410840940        3.39908896151607       -3.20361505114895
H           -7.54086829710200        4.96719868050150       -2.40317964872761
H           -6.09562941547524        4.28178203939181       -3.14513317344413
N           -6.87023876076945       -1.01677172885476        0.20637982572307
H           -6.14366588573864       -1.89771327641437        1.66110837566810
C           -7.91993410086868       -2.00683173943086        0.19189059932874
H           -8.90194199705013       -1.55773307070086        0.39518745591373
C           -7.98833087832839       -2.75179939768815       -1.14464393168008
C           -7.61558465773189       -3.01666075117043        1.30897530751108
H           -7.00274853359008       -3.13257515809373       -1.40505502185097
H           -8.67907627918733       -3.58500113885641       -1.05104444264989
H           -8.32968908413205       -2.08253338878000       -1.92981700500233
O           -6.52184550389172       -2.74573064796086        2.00579033324253
O           -8.30667485121488       -3.97562033984370        1.52184186858470
