42
 energy: -62.486133526983 gnorm: 0.000477695917 xtb: 6.7.1 (edcfbbe)
N           -1.10813516346535       -0.63558817797934        0.06510739710279
H           -0.36943654282519       -1.28645282002923       -0.17328271504103
H           -1.05568788297744       -0.46937577262049        1.06663261706739
H           -1.86595171187663        1.02446044099613       -0.53486521802365
C           -2.41925220801313       -1.18842065310578       -0.27332044929809
H           -2.35323861249651       -1.56823836425196       -1.30164613002960
C           -2.90079000980082       -2.30756431672091        0.64559616160734
C           -3.40522972541388       -0.02395554889454       -0.30230315626884
H           -2.93748517650551       -1.95634093816228        1.67454496789060
H           -3.90175846618341       -2.60557950423166        0.35365206176792
H           -2.23317686550442       -3.16476245450514        0.58525289766266
O           -2.83322838611547        1.17529844883426       -0.52863153879206
N           -4.62220946993438       -0.26867385196130       -0.13335901430198
H           -6.49258936548558        0.32447269218177       -2.44559949788691
C           -5.71721843632768        0.67352504120176       -0.14832489487548
H           -5.92025085961809        0.91142725535386        0.90264339488633
C           -5.52903605019794        1.97383766358340       -0.94161061701980
C           -6.88628128666236       -0.16367914838761       -0.63659346159664
H           -4.73371074625240        2.54991046651986       -0.46772838721480
H           -5.18095642135980        1.74262839707336       -1.95490260436857
C           -6.79603319722267        2.83773124614479       -1.01248047681764
O           -7.10958046608413       -0.24033165855752       -1.96335202904138
H           -7.61871933977786        2.25243994439749       -1.43919249547661
C           -7.22580121684920        3.31662480048030        0.37241598349635
C           -6.53837454904457        4.03737148927784       -1.92383576743537
H           -6.40830887081591        3.83907655009751        0.86490712085709
H           -8.06628221782473        4.00135184705195        0.28563830810822
H           -7.53589024439307        2.48312394804694        0.99733023614753
H           -6.25374541573983        3.71565814328002       -2.92369789277159
H           -7.43192141011451        4.65137533492730       -2.00597334465904
H           -5.73597666822842        4.65144034500221       -1.52078376475527
N           -7.53452338875616       -0.83646076610240        0.20612574520196
H           -7.97872836285504       -1.19214562301296        1.92134581593803
C           -8.59126898048524       -1.74349219908259       -0.18137476023353
H           -9.26327547852777       -1.29833099686981       -0.92559822753776
C           -8.02963922162797       -3.05525849845232       -0.74162665806028
C           -9.39422539638719       -2.06782320701606        1.08720037085101
H           -7.33080727214664       -3.49077680589864       -0.03039372436563
H           -8.84580461447947       -3.75120622050017       -0.91398976362043
H           -7.50996680225211       -2.86532524137330       -1.67704260623508
O           -8.79965672112925       -1.66223610839667        2.20258073449897
O          -10.44203802959847       -2.65176100820004        1.06947047793788
