42
 energy: -62.486133508570 gnorm: 0.000480482821 xtb: 6.7.1 (edcfbbe)
N           -1.21509897709352       -1.41148580191450       -0.91954041138300
H           -0.87955473203342       -2.07074873426953       -1.61228731973317
H           -1.01058866880556       -1.80098487125937       -0.00314129664824
H           -1.17025337249202        0.44428299330367       -0.48107881417794
C           -2.65722175473151       -1.20069128325053       -1.05438941939459
H           -2.86674541225533       -1.02586373717581       -2.11660202102084
C           -3.51518307945642       -2.36094760394232       -0.55998158867818
C           -3.01677625055578        0.10783764211523       -0.32651899531294
H           -3.32633155882263       -2.54650363464946        0.49672817082888
H           -4.56014539456843       -2.10053626621203       -0.69196975758402
H           -3.29596516441113       -3.26710862767851       -1.12217219847872
O           -1.95060204905720        0.92527382360123       -0.13949227882343
N           -4.13996706103071        0.43698622077021        0.04395737802499
H           -7.40788304999483        0.30973090034135        1.73217975174185
C           -5.41781871076663        0.79590711291931        0.43149619931521
H           -5.41127821940166        0.94176846697351        1.52521603511775
C           -5.79457850321528        2.12946388274528       -0.26320329723945
C           -6.49219387100878       -0.23542857356943        0.09915843533708
H           -4.96552738132451        2.82002541060149       -0.10075605618550
H           -5.85091474715736        1.91855846757937       -1.33238149689882
C           -7.10178080283672        2.78153858378567        0.19922490412065
O           -7.54289707546610       -0.30508608743413        1.00021561566311
H           -7.91834153127198        2.05350216969182        0.13854512369484
C           -6.99943712449601        3.30812480325304        1.63053551096829
C           -7.44702974559493        3.93241581398719       -0.74522793289379
H           -6.21750398168772        4.06144119714781        1.69450341299455
H           -7.93924773727875        3.76484867037895        1.93282223836423
H           -6.76429308986170        2.52144864323094        2.34535901361034
H           -7.58826899504467        3.56535923671404       -1.75866075690673
H           -8.36467641361181        4.42243019024003       -0.42820215304819
H           -6.64744582367242        4.66976987180914       -0.75343894929707
N           -6.40554251178990       -0.93012610635047       -0.93494069908680
H           -8.86372930873964       -0.48129443066085       -0.22944533891617
C           -7.33316529510962       -1.92944667107958       -1.40415152755932
H           -6.83732221099617       -2.40768580339390       -2.25721331081583
C           -7.69637885472250       -3.00209129327177       -0.36832411615397
C           -8.62809232336216       -1.30677981787428       -1.94915813405371
H           -8.22467294892232       -2.57517223131954        0.48121463296490
H           -8.32745392887327       -3.75454378062901       -0.83476469792095
H           -6.78799227060300       -3.47880740170172       -0.00602029569123
O           -9.30701003169229       -0.53953845627951       -1.09686003173124
O           -9.01927694471254       -1.51165629275929       -3.06219237677445
