42
 energy: -62.486133512828 gnorm: 0.000479633753 xtb: 6.7.1 (edcfbbe)
N           -2.24489520109590       -0.27949202187642       -1.62684242524137
H           -2.32588239334538        0.71273309649978       -1.82527272254227
H           -2.12901393210150       -0.76451361357863       -2.50999460033329
H           -1.55432645812599       -0.54195474451744        0.27575808401733
C           -3.43855831198684       -0.77117831428231       -0.93285169794650
H           -4.38218414642860       -0.49819042750982       -1.42054494772286
C           -3.34530500492515       -2.29548055454472       -0.83403271267297
C           -3.37997322386969       -0.19500717507090        0.48144236116330
H           -2.36497903694840       -2.58829703179730       -0.46341476860841
H           -4.10606601759261       -2.66106859773807       -0.15394109707810
H           -3.49948502826637       -2.74358278537733       -1.81292928141236
O           -2.15052984852553       -0.29120830564234        1.00645042866293
N           -4.25333491241902        0.34494940307079        1.20855305916500
H           -7.99494205203912        0.79117950030599        1.07857976918460
C           -5.60340350852288        0.71743420041726        0.92379358908798
H           -6.00002152058452        1.04098815222978        1.89846369081895
C           -5.56934033179668        1.94049291710335       -0.03431633784246
C           -6.55341883145989       -0.33234723135540        0.39461234114996
H           -4.74982441749259        2.57283933168051        0.31506068505861
H           -5.30411958699970        1.57458883038702       -1.02871193231229
C           -6.83344447760667        2.80141924264663       -0.14663121654413
O           -7.89148383719917       -0.01932787554171        0.56500740580733
H           -7.67189570042335        2.19019909282505       -0.49880294560289
C           -7.20161021599562        3.46293963994563        1.18125754064623
C           -6.59509039949291        3.88322008487467       -1.20146241119269
H           -6.38007051013380        4.08731071980129        1.52494482149723
H           -8.07974399812227        4.09263842025737        1.05535947553587
H           -7.41887242211269        2.73960107723586        1.96540493563496
H           -6.36956068959144        3.43673128028653       -2.16701630905900
H           -7.47988215038783        4.50547664343239       -1.31258441206282
H           -5.76172736657521        4.51954428082768       -0.91222240699997
N           -6.15581453005989       -1.40487119975460       -0.10687594442681
H           -8.46571144164037       -0.62843855987460       -1.06592327544033
C           -6.97331279302380       -2.46731850441009       -0.64065711115804
H           -6.28084964556241       -3.29113668198206       -0.84806783324137
C           -8.08263785702785       -2.97385038105181        0.28835771259264
C           -7.56875176878679       -2.05071324477371       -1.99436854335124
H           -8.84244366954964       -2.21689257892811        0.46825352995876
H           -8.55301596357190       -3.84643409524901       -0.15824245500106
H           -7.64673582001316       -3.25808189638499        1.24352377344699
O           -8.38206231096841       -0.99509913875638       -1.96625967226870
O           -7.32146416384580       -2.62968593033341       -3.01330144007810
