42
 energy: -62.486133502462 gnorm: 0.000481069581 xtb: 6.7.1 (edcfbbe)
N           -2.12270513813299       -1.65599927744239       -0.60287820421397
H           -1.56349646839218       -2.47315763171588       -0.39161968869629
H           -1.48759546725507       -0.86943931873248       -0.70701799569731
H           -3.54711603928122       -1.14349428082870       -1.77261822638015
C           -3.07950148503219       -1.38306086300199        0.47005882211531
H           -3.53759761293300       -2.33854042309166        0.75414680568074
C           -2.48020100250906       -0.72610803712242        1.71058564172416
C           -4.19639674434997       -0.53569633826685       -0.12072797984697
H           -1.98293826519736        0.20340931641864        1.43948021411202
H           -3.27643554151496       -0.49802574932829        2.41048681713252
H           -1.75843924010371       -1.38892336930074        2.18339061390855
O           -4.28852454735654       -0.58280000450837       -1.46303291908488
N           -4.97232315867172        0.08764692557010        0.64704720874869
H           -7.24167178494682        0.93033803365341       -2.08924638341216
C           -6.07698055146199        0.86737297346309        0.11696215829704
H           -6.54516117349493        1.31401645467883        1.00448007181799
C           -5.62689108868446        1.98962085854419       -0.82778290768314
C           -7.09096117522674       -0.09810148317256       -0.47520435746226
H           -4.69630142824287        2.39573984829367       -0.42408166372922
H           -5.38195556298972        1.57034555186326       -1.80824650558869
C           -6.64754560277736        3.13250295865648       -0.95864504988180
O           -7.61867185572959        0.13556593642272       -1.69126435039782
H           -7.66452281372171        2.72191132041268       -0.98325707629582
C           -6.55786393476280        4.07871506345271        0.23705441080804
C           -6.40502646554561        3.90768782351195       -2.25382444241466
H           -5.58139458498302        4.55752748567482        0.26755418280090
H           -7.31730481149237        4.85385846581546        0.16490741007507
H           -6.70598016812839        3.54310131591653        1.17128662568316
H           -6.52325918398769        3.26963825182360       -3.12818191842024
H           -7.10797052192067        4.73283268011967       -2.34003795028420
H           -5.39673890550412        4.31622146059447       -2.26398769301584
N           -7.38731770153096       -1.11103817576334        0.21164375055514
H           -7.32060111725433       -1.97602320452255        1.78660193771793
C           -8.29765607876180       -2.13004655519795       -0.25263765854916
H           -9.22701055080020       -1.70006774002642       -0.64751050095837
C           -7.66374472701638       -3.01494981094131       -1.33208852834360
C           -8.63297205871038       -3.01223488636435        0.96048649578191
H           -6.71675411170939       -3.41314591098119       -0.97247283121364
H           -8.33412560477625       -3.83896647286754       -1.55936561846903
H           -7.48397509851628       -2.43292457818197       -2.23219058604208
O           -7.89790991380980       -2.74021290316139        2.03059295331036
O           -9.46465424364003       -3.87711120300290        0.93009049537489
