42
 energy: -62.486133514042 gnorm: 0.000479804861 xtb: 6.7.1 (edcfbbe)
N           -1.80160802074467       -2.15537927304605        0.19664336311419
H           -1.33299862283170       -1.81594989092744        1.03064585332024
H           -1.12009477950558       -2.65806898711508       -0.35960760975356
H           -3.63389156985337       -2.39898098245432        0.76915114835062
C           -2.37015657770364       -1.04454455913433       -0.56622370698317
H           -1.72820255543356       -0.15391630440292       -0.60124206769492
C           -2.67706823787403       -1.49812518543060       -1.99358439846778
C           -3.69068922787424       -0.66380481324404        0.08212978245428
H           -3.32144518719635       -2.37348857051406       -1.97539386323718
H           -3.18905729254506       -0.70009341527004       -2.52121849421518
H           -1.75781208708861       -1.74465934597942       -2.52136435508483
O           -4.25951112071765       -1.64539310571623        0.79978480106868
N           -4.11738605835688        0.50718019482658       -0.07684903348588
H           -7.46933106629963        0.77897463235815        1.63634021156372
C           -5.42832106458361        0.94204257597676        0.33537807890336
H           -5.37855848315743        1.23894957098384        1.39496079903355
C           -5.75530934956806        2.17075890941158       -0.53855141824962
C           -6.51047530206467       -0.10005757808723        0.18091777701150
H           -4.89164977653225        2.83469309091510       -0.48313162473455
H           -5.83003263681758        1.81124259291420       -1.56593503780338
C           -7.02469021228442        2.94756589489424       -0.17566065819151
O           -7.60129240760693        0.04625144082453        1.02297807698372
H           -7.87950242920784        2.26256621615076       -0.14947931373515
C           -6.89897658525950        3.64999622640029        1.17641311125254
C           -7.30439375750985        3.98413954969122       -1.26340523153875
H           -6.07869883392648        4.36398977690129        1.14980144680243
H           -7.81445957204033        4.19034710828383        1.40751052978080
H           -6.70769509117873        2.95234432689853        1.98999824951684
H           -7.45048748745199        3.49863034994050       -2.22490193570641
H           -8.20126966272069        4.55214851979995       -1.02703888782138
H           -6.47056713619483        4.67715631606037       -1.35044512610416
N           -6.39241480012131       -1.00842492195198       -0.66658927640853
H           -8.85622618194725       -0.39958284428792       -0.19701114315911
C           -7.30521149499635       -2.08957082183793       -0.92665181333668
H           -6.77683238831566       -2.75256368158130       -1.62196143314157
C           -7.70340034957212       -2.88630754970678        0.32320473996784
C           -8.57891829422128       -1.62590867552137       -1.64817904036893
H           -8.32549330593763       -2.29532776050834        0.99216371396563
H           -8.25080296139543       -3.77771906049275        0.02714751896565
H           -6.80286318646685       -3.17825902899769        0.85866574244299
O           -9.27732186531435       -0.67033733442940       -1.03523775250920
O           -8.94107421891049       -2.10453964455653       -2.68523635484456
