42
 energy: -62.486133506270 gnorm: 0.000481321214 xtb: 6.7.1 (edcfbbe)
N           -1.50363130028188       -0.84947093381519       -1.80782030341019
H           -0.88984553984528       -1.60005240375069       -2.10026304135420
H           -0.92425587565839       -0.11970666751609       -1.40146928790292
H           -2.96491019059778        0.20269667414298       -2.45853824235757
C           -2.47197973402298       -1.32147847405680       -0.81912035728808
H           -2.89985508735547       -2.25638030651452       -1.20189092963993
C           -1.89038769039475       -1.56612757473253        0.57121516668632
C           -3.62124585019854       -0.31590423246657       -0.78189455040537
H           -1.43856113198455       -0.65295471013477        0.95371580931729
H           -2.68769631456589       -1.86124422439638        1.24388112042284
H           -1.13447968224836       -2.34842393789111        0.53749648572259
O           -3.71325711348275        0.45035457106025       -1.87777716101515
N           -4.36828492946395       -0.31674774253348        0.22665621151558
H           -7.38119462073042        0.19321984659016        2.01417642704023
C           -5.53760761512169        0.49695326729917        0.43673939569779
H           -5.47338976462058        0.80157185053918        1.49292078112351
C           -5.71293212849285        1.74348239386357       -0.44850876315418
C           -6.74614862354376       -0.39948761634500        0.26867010543216
H           -4.78986799600037        2.32470450080225       -0.41341062780303
H           -5.85864605103628        1.39969411804188       -1.47206762634609
C           -6.89137090850738        2.63472690537946       -0.03846633755258
O           -7.68224506614746       -0.36509562113359        1.28717380805464
H           -7.78437679433909        2.01378717023340        0.09632119250500
C           -6.61116289140327        3.39270635984509        1.25888464529834
C           -7.18532707594400        3.62954252710521       -1.15998132585979
H           -5.75307876409787        4.04912199432220        1.12989339429420
H           -7.46909168589204        4.00308944719746        1.53231986510199
H           -6.39955965827161        2.72079594453948        2.08836828655918
H           -7.45004732964598        3.10456633685949       -2.07420319018878
H           -8.01284888382412        4.28029123771713       -0.88659136695993
H           -6.31154042301996        4.24677843595617       -1.35733916043146
N           -6.85069346831883       -1.09267280051796       -0.76435842375404
H           -9.14618199301674       -0.40616724723591        0.21357015389847
C           -7.91339160777190       -1.99963265437797       -1.10982580103670
H           -7.56578184165828       -2.52336360766765       -2.00792133804775
C           -8.24879616563515       -3.03139994114140       -0.02427059153339
C           -9.20220335276749       -1.26253706051484       -1.50570694062436
H           -8.65713398816750       -2.55742750000381        0.86563081172239
H           -8.97567230241564       -3.74086676632869       -0.41212037481283
H           -7.34352877125978       -3.56628611275396        0.25386914467499
O           -9.69705259966564       -0.42796565582486       -0.59139463988897
O           -9.74692845552819       -1.43871539832902       -2.55762715544768
