42
 energy: -62.486133515709 gnorm: 0.000479602193 xtb: 6.7.1 (edcfbbe)
N           -1.72531246711860       -2.24372485613622       -0.30715853867390
H           -1.74220802048184       -2.67475562187040        0.61087574937438
H           -0.81277957324243       -2.41133726311098       -0.71332940064255
H           -3.57771135655218       -2.34802319293918       -0.91392190439565
C           -2.00196463634639       -0.81164011721709       -0.22157993640538
H           -1.53425955200251       -0.31606904494033        0.64072200518832
C           -1.54390769584740       -0.11747729745964       -1.50459641615659
C           -3.50997385997205       -0.65022007685480       -0.11261105317470
H           -2.01087062639836       -0.58450047565121       -2.36903502446630
H           -1.82762468151368        0.92987481882333       -1.47160731150475
H           -0.46317181137446       -0.18807747886714       -1.60839394929342
O           -4.21923377234828       -1.66025628398132       -0.64283646320537
N           -3.97325308986649        0.40185351698209        0.39817859275535
H           -5.07069545506737       -1.21897134455339        1.90587777500239
C           -5.39157580458335        0.68868817871371        0.48001207624449
H           -5.51500818107286        1.24524131575575        1.42104035493224
C           -5.77817531908313        1.59828449545209       -0.69510735249563
C           -6.26913420691535       -0.54116598833893        0.57339886058004
H           -4.94260972771647        2.27836590124633       -0.87324917028411
H           -5.89554636017937        0.96732662970894       -1.57707212724495
C           -7.05439945606644        2.41383205333337       -0.45814119441387
O           -5.92477046776965       -1.44742762041011        1.51796340046936
H           -7.80063876245786        1.76244580108907        0.00484056289598
C           -6.78892924481014        3.59742157378819        0.46995616461820
C           -7.60331047294883        2.91583620721487       -1.79249098834755
H           -6.07136739465357        4.27919925749027        0.01795904644271
H           -7.70969187593235        4.14501802155673        0.65705207978063
H           -6.39145829578690        3.26954572477500        1.42720537674518
H           -7.85539558471197        2.08623117358446       -2.44833241569996
H           -8.50090784754933        3.50875513385036       -1.63400684168550
H           -6.86603471954951        3.53981613944952       -2.29362330027366
N           -7.32296483425382       -0.62747084672671       -0.10593998874086
H           -8.18471000011393       -0.17783972884498       -1.62175077234328
C           -8.21602161281485       -1.75739840795829       -0.00821449050708
H           -7.67670258687493       -2.70106710674675        0.13965991818594
C           -9.22026920430125       -1.57106589362983        1.13456353414535
C           -8.99595048880576       -1.82773245620577       -1.33012028972039
H           -9.73597214663637       -0.61897028276499        1.02435256535443
H           -9.94951105846332       -2.37575723450447        1.10724467862929
H           -8.70125538851009       -1.58465684526146        2.08986453580440
O           -8.83026879056126       -0.75606258946510       -2.09578145761462
O           -9.70065959179465       -2.75190328266477       -1.62738250761052
