42
 energy: -62.486133504480 gnorm: 0.000481148128 xtb: 6.7.1 (edcfbbe)
N           -2.72885080912812       -2.63634591563517        0.43764572407672
H           -3.16404231545530       -2.90117359597203        1.31591462312024
H           -1.79894595570253       -3.03822848419088        0.41896962715439
H           -4.29139626380728       -2.45132408391575       -0.70201030391727
C           -2.66635773919786       -1.18072687158272        0.31530269022075
H           -2.35658601504509       -0.66739872726380        1.23569178079048
C           -1.71186200402237       -0.79882249176579       -0.81645912561067
C           -4.06465325582850       -0.70809840086818       -0.04616881370937
H           -2.00903791751128       -1.29232419652590       -1.73948285988463
H           -1.73505872140787        0.27653544482689       -0.96371411122440
H           -0.69528205924127       -1.09926717947862       -0.57203486675844
O           -4.79571504002537       -1.61232287307318       -0.72115761637582
N           -4.40997908744673        0.45882899235475        0.25961160758111
H           -6.64460215485579        0.21126904907180       -2.19410277398601
C           -5.70953797767828        1.02822664103971       -0.03103840273720
H           -5.98812134807835        1.54733485000876        0.89318466495021
C           -5.53839710317440        2.06179588244750       -1.15332530181257
C           -6.78925644304333       -0.00544310941197       -0.29574021412518
H           -4.70852320453736        2.70913257904816       -0.86326489239917
H           -5.22495405829257        1.55158861899537       -2.07179034339661
C           -6.78129571428652        2.92069041155520       -1.42288893247984
O           -7.17857037882907       -0.27563628878220       -1.55447661783095
H           -7.65753518355173        2.27297219527434       -1.54021965450138
C           -7.05354570875337        3.88135911197072       -0.26793675062909
C           -6.58558182358479        3.70735421581253       -2.71890733698839
H           -6.19088828607252        4.52116295274066       -0.09516881085658
H           -7.90799130117413        4.51276240399439       -0.50016088531034
H           -7.27392336817167        3.34142867924793        0.64889524531438
H           -6.42735299322186        3.04056362326676       -3.56448476683795
H           -7.46043950605892        4.31782087651809       -2.92832623809904
H           -5.72224668730226        4.36385246543405       -2.63442144083932
N           -7.27948787951632       -0.58950371859519        0.70953783173375
H           -7.55119802397527       -0.65872768609465        2.48962409219067
C           -8.28989574061091       -1.61516112941416        0.58167884185520
H           -9.06377015946840       -1.33799817858920       -0.14517877748876
C           -7.68491935454263       -2.96210232927760        0.16954353424400
C           -8.93805406932894       -1.78378617398562        1.96275763290419
H           -6.90790237661000       -3.24868626363004        0.87551444841230
H           -8.46322315817725       -3.71983904473488        0.16800755898090
H           -7.24914390015736       -2.88036729234324       -0.82239977001753
O           -8.29013840536788       -1.14356283874613        2.92958953393041
O           -9.91792779192322       -2.44985788846832        2.15232530289660
