42
 energy: -62.486133514840 gnorm: 0.000479238547 xtb: 6.7.1 (edcfbbe)
N           -1.61307345259518       -1.16424313894790       -0.34166559011266
H           -1.05561211519647       -2.00949660708198       -0.32684714428668
H           -1.11825609285362       -0.46148251267451        0.20054586154241
H           -2.57140587556157       -0.10628734187821       -1.60192626514830
C           -2.93428403105481       -1.40058997357737        0.24144528547871
H           -3.32141029261709       -2.32879873241630       -0.19761149699078
C           -2.94760994054585       -1.52559540961155        1.76195950061187
C           -3.85473003060894       -0.28303608348947       -0.24750725806328
H           -2.55109937713726       -0.61970339591116        2.21647962385257
H           -3.96748974589905       -1.66366721747104        2.10305024917366
H           -2.34476125229926       -2.37449252638082        2.07738437986632
O           -3.44262198123914        0.29196464883466       -1.39418596658777
N           -4.88545309958159       -0.04091270635034        0.41966225610287
H           -8.30444826148071        1.61884930901068       -0.03799477420113
C           -5.95077931264859        0.88853926873449        0.15276488462748
H           -6.05762618965942        1.47849048807736        1.07498223609707
C           -5.72168592257903        1.83347608926775       -1.04735173499077
C           -7.20304156573042        0.04137156573363        0.02100838874120
H           -4.72418327517310        2.25771203989833       -0.91802930951546
H           -5.69910777214486        1.22577676094301       -1.95393795916824
C           -6.69874553441469        2.99886790587511       -1.25653660432537
O           -8.39882798727102        0.66052411960835       -0.09411712908131
H           -7.68046301724058        2.61780175262972       -1.56216611097040
C           -6.85129882214827        3.87218564129061       -0.01055725186416
C           -6.18178569330505        3.85637906148795       -2.41372525420933
H           -5.87886106784139        4.24582780263573        0.30337220263314
H           -7.48833541410312        4.72681017890565       -0.22941574870768
H           -7.29241018994166        3.33636777496833        0.82875930862438
H           -6.05902796553683        3.25469762531939       -3.31084237156761
H           -6.87911576085439        4.66173116767064       -2.63324157845900
H           -5.21887390333049        4.29480537940984       -2.16161872575822
N           -7.09129967674321       -1.20575638880314        0.12003127884423
H           -6.04833287211461       -2.52461956371445        0.66120031830781
C           -8.19792636686358       -2.12500350960417        0.08590959569972
H           -9.02826709085274       -1.79329319780331        0.72350745943238
C           -8.72441453938491       -2.34363145999318       -1.33574606750264
C           -7.65997726573112       -3.46114131501558        0.63093334921480
H           -7.90360815219181       -2.61661455189052       -1.99589266868312
H           -9.45658528213131       -3.14604527675337       -1.32698697002644
H           -9.18864625803586       -1.43228572392394       -1.70425992820262
O           -6.35560217877663       -3.44379078273337        0.87198752347559
O           -8.35510662651387       -4.42371683140586        0.80611510953215
