42
 energy: -62.486133508740 gnorm: 0.000480591908 xtb: 6.7.1 (edcfbbe)
N           -1.39212543029787       -1.38260910544112        0.53988263558782
H           -0.84923895892913       -0.56756021552849        0.80662205279907
H           -0.74312199194365       -2.11245728401088        0.26969363635920
H           -2.99798029629070       -1.23684845719021        1.60952649456166
C           -2.29625225566788       -1.06091847070520       -0.56458411571578
H           -1.85537373795871       -0.40986053899740       -1.33078859032335
C           -2.78904881906635       -2.34987809811883       -1.22425516157611
C           -3.49757291365117       -0.35423757842128        0.02976606502894
H           -3.22371216103100       -3.01053993351330       -0.47652255543242
H           -3.54347632884310       -2.10993437731148       -1.96748584838402
H           -1.96392856601456       -2.86649343809950       -1.70982687831463
O           -3.75159188270420       -0.68096746678123        1.32193327519530
N           -4.16678338087651        0.44362527104963       -0.66825680407439
H           -5.71627458813907       -0.14452121963872        1.95845829110382
C           -5.37811689295339        1.05986787683803       -0.15564929040065
H           -5.14971243966349        1.59952147569422        0.77608757987922
C           -5.89369172823401        2.02675048706305       -1.22246920555068
C           -6.39480343901022       -0.01938102670135        0.14630312585145
H           -5.09576767806471        2.73713202274552       -1.44384111522510
H           -6.08337460609314        1.43352309405760       -2.11582918945507
C           -7.16934351482934        2.77825365031077       -0.83212023200502
O           -6.51500844092648       -0.38810334999688        1.46961665245799
H           -7.94127576524734        2.04467652716079       -0.57771432590857
C           -6.95138581764918        3.69981160711699        0.36683665596840
C           -7.65871844663528        3.59070443738570       -2.02928535093159
H           -6.12607541597961        4.38321040093958        0.17610863092997
H           -7.84669599290951        4.28838442889653        0.55345502387537
H           -6.73283958631086        3.13559347551144        1.27029304255914
H           -7.84219599921230        2.93997975177553       -2.88006187832940
H           -8.58428518722291        4.10763006536208       -1.78745996898612
H           -6.91482380355729        4.33179278397961       -2.31465216940309
N           -7.03005259583679       -0.54006576718740       -0.79652547175379
H           -8.30821170337552       -0.58230243634653        1.44644176211937
C           -7.97518532961141       -1.62176562146341       -0.71504892839901
H           -8.19944346190054       -1.88818570058681       -1.75456895496771
C           -7.45370727616887       -2.86521631691656        0.01960118231729
C           -9.30867428322927       -1.20016831289258       -0.07708491119652
H           -7.27157612778850       -2.65917320958870        1.07212302288312
H           -8.18344109504160       -3.66676252774019       -0.06263436141376
H           -6.52082039850074       -3.18687576153265       -0.43881870167591
O           -9.22930959147757       -0.64934041434720        1.13266610555134
O          -10.36117332592307       -1.37831652821152       -0.62099609137512
