42
 energy: -62.486133530827 gnorm: 0.000477714304 xtb: 6.7.1 (edcfbbe)
N           -2.23529283676684       -1.55820045165377       -0.72401448632857
H           -2.06425901213601       -1.04640947520296       -1.58347672304944
H           -2.15866900038101       -2.54826514720182       -0.92703854771549
H           -1.66239209713074       -0.39568155758230        0.71363699434742
C           -3.55194322016016       -1.23924114660510       -0.17317966707841
H           -4.34849214184837       -1.25089070529464       -0.92869180370334
C           -3.88127311008168       -2.23586182693271        0.94045275675414
C           -3.43908733389275        0.13940441609661        0.48920511307993
H           -3.12215822317454       -2.18643864327930        1.71839300295867
H           -4.84633565364644       -1.99784355738683        1.37881705125226
H           -3.90684480866298       -3.25107066028239        0.54771706423498
O           -2.22610124505517        0.34662095243779        1.01537261282799
N           -4.30465249726050        1.02736385758418        0.68684825713865
H           -6.08118760968541        0.64331299674609       -2.21342903385533
C           -5.62203127171208        1.21271428334825        0.15856483369264
H           -6.21126526869623        1.51954040383052        1.03367852937864
C           -5.54913187938334        2.40918233325960       -0.80716218020547
C           -6.36191667253413        0.01376652574550       -0.41711297736546
H           -4.95562765437949        3.17305213143415       -0.30277270299773
H           -4.98228336240189        2.12709092423624       -1.70271194022512
C           -6.91085052398511        3.00313026002222       -1.19614360170268
O           -6.46380948676332       -0.11930247639379       -1.75977465390818
H           -7.59450243589624        2.20268358784704       -1.50354919181533
C           -7.54794073806363        3.74013436571514       -0.02056878179927
C           -6.73089267902898        3.96222146754764       -2.37288496447128
H           -6.89336412808145        4.53616921988340        0.32632963385876
H           -8.49467921370999        4.18081632719810       -0.32385359469796
H           -7.74143532916414        3.06609854380264        0.80952009244028
H           -6.31819039097720        3.45160121133068       -3.24124506191447
H           -7.68606704862884        4.39580638532124       -2.65822407277480
H           -6.05638369672634        4.77016072881162       -2.09879758932325
N           -6.87690174684178       -0.81320156438424        0.38263109277578
H           -7.31042901189142       -1.24299216489550        2.08976558896137
C           -7.69206108002064       -1.92677590984521       -0.05379886322627
H           -8.54174460767811       -1.54937273643021       -0.64002171090005
C           -6.97503092685260       -2.98816390996186       -0.89206791590300
C           -8.26267347766753       -2.58986034964016        1.21239374723738
H           -6.11464775869239       -3.37601100173132       -0.35374155271193
H           -7.66796823900215       -3.80438628391428       -1.07664893926301
H           -6.65154814214452       -2.56946917587143       -1.84109087017756
O           -7.88718745026129       -2.00163145272021        2.34121020666916
O           -8.97644377139624       -3.55283661571836        1.17527197147894
