42
 energy: -62.486133514579 gnorm: 0.000479812402 xtb: 6.7.1 (edcfbbe)
N           -1.63847158640924       -0.28574126101131        0.05212337452166
H           -0.91535193239944       -0.99246220768957        0.10745227851075
H           -1.40000316235017        0.44834351624484        0.71345228747258
H           -2.58254276410041        0.66903645289077       -1.27048343048927
C           -2.94789263789516       -0.84721971170793        0.38821399507702
H           -3.04293844084545       -1.79965521967283       -0.14797989378783
C           -3.17241059998868       -1.08680906185603        1.87811544446240
C           -4.00619030953182        0.08535563990838       -0.20180720390564
H           -3.05214215149543       -0.15586434042537        2.42901121143993
H           -4.18029953510446       -1.45280097707767        2.03752597163694
H           -2.46067177459887       -1.81740872851444        2.25652718236875
O           -3.54604409868155        0.84506241409507       -1.21755133640045
N           -5.16083981005631        0.03456500477840        0.27605698304294
H           -8.72293374924647        1.18889757601087       -0.35070125781837
C           -6.34706448458434        0.75615250282903       -0.07802921855944
H           -6.54885145591792        1.42084900518627        0.77842688473510
C           -6.37600470959173        1.59306112782468       -1.38070223096382
C           -7.47893057259916       -0.25389955670894       -0.07590766878607
H           -5.48726458645162        1.36376337195666       -1.96419636381793
H           -7.23763680744985        1.29765952475313       -1.98690981402554
C           -6.43199585055214        3.10589971853951       -1.13498546951293
O           -8.73163528829253        0.22827540864635       -0.25380639364317
H           -7.27918297472992        3.33238535308953       -0.47202393232332
C           -5.15117341170101        3.60137643824503       -0.46938154896613
C           -6.65189001417349        3.83651244010840       -2.45807599905007
H           -4.29900395032148        3.40492692836171       -1.11477331883188
H           -5.20906691603353        4.67138074367834       -0.28211589278669
H           -4.98138999601466        3.09659446986789        0.47876563414463
H           -7.58181822591775        3.52196455188032       -2.92780104645876
H           -6.69697969690055        4.91111652260535       -2.29689793446354
H           -5.83353483712780        3.62601284675063       -3.14259639811071
N           -7.22500920726099       -1.46548502301958        0.12218737254699
H           -6.01816842413161       -2.61809225570540        0.70493197532990
C           -8.21785463851145       -2.50593985848955        0.19406996638484
H           -9.06124366710232       -2.22284059776549        0.83743696103020
C           -8.75829573398062       -2.89179784380026       -1.18610856243395
C           -7.51301302954792       -3.72658320248353        0.81486061032341
H           -7.93209646693328       -3.12127617532009       -1.85586008835591
H           -9.39241563397512       -3.76848578103486       -1.08913647966572
H           -9.33596864503926       -2.07038417267920       -1.60250294164137
O           -6.21281581136086       -3.54420285609250        1.00146942963919
O           -8.08715367293657       -4.74426821898178        1.08864135649847
