42
 energy: -62.486133487875 gnorm: 0.000484142524 xtb: 6.7.1 (edcfbbe)
N           -1.82728960851877       -0.38815365221693        0.70708775145456
H           -1.13042528448362       -0.97190706726086        1.15830368471558
H           -2.41921514819464        0.01271173173998        1.42725224338262
H           -3.37543207323237       -0.61916393622868       -2.45616382471189
C           -2.65143171246584       -1.18927822956489       -0.18092367417519
H           -2.03812744161877       -1.43307724588067       -1.06221649353476
C           -3.17145706674244       -2.49439279474567        0.44467663811779
C           -3.84163913542379       -0.35461001443494       -0.60045354263952
H           -3.80244940660655       -2.25558542081488        1.29699541749897
H           -3.75851310075305       -3.05930508572096       -0.27575216886835
H           -2.33639095785876       -3.11023524130962        0.77298052312547
O           -4.07300697458476       -0.20605520608782       -1.93231960493350
N           -4.57999099348967        0.10701155062607        0.30321841456572
H           -6.66202540212272        0.66210844238861       -2.25244695996777
C           -5.75595648322043        0.91541384958907        0.03883383023517
H           -6.07854991281968        1.24164753226060        1.03482806884123
C           -5.49555327774984        2.14827740480284       -0.83075198601453
C           -6.82315063305636       -0.03398632294363       -0.47429451973002
H           -4.64267742295230        2.67452049586020       -0.39503006755034
H           -5.19085560025170        1.84693140435775       -1.83729321381585
C           -6.69213770617239        3.10762496838317       -0.91115971814130
O           -7.17282114138095       -0.00317138846874       -1.77313120939214
H           -7.59932089218562        2.54193031649791       -1.15442342990288
C           -6.92451415929393        3.82727950888067        0.41552028135592
C           -6.44941793363297        4.13181997815769       -2.01977529197328
H           -6.03229372802750        4.37475925874449        0.71140700366293
H           -7.74414208968344        4.53531096889032        0.31809270305383
H           -7.17879479346252        3.12676310391731        1.20631734350054
H           -6.32362996983290        3.64572605531532       -2.98551763583878
H           -7.28909272627592        4.81858250301894       -2.09302352300842
H           -5.55232165791599        4.70977054319850       -1.80811662370869
N           -7.27064440256847       -0.89197945611601        0.33254849185404
H           -7.51700123051825       -1.45210925094584        2.03269306990327
C           -8.20602352385731       -1.91498316429634       -0.07416804944500
H           -9.01379472662259       -1.50944907704963       -0.69624816877666
C           -7.50815518438248       -3.04377745406325       -0.84163716781925
C           -8.81359788378319       -2.50639308717866        1.20735708584532
H           -6.67225658979036       -3.42349910814646       -0.25704308471559
H           -8.21573146481375       -3.84899069743838       -1.01762515078733
H           -7.13764066888460       -2.67208587802242       -1.79368236944935
O           -8.21102076442319       -2.09464368197418        2.31522156901347
O           -9.72770038530832       -3.28338291179338        1.19879868535743
