42
 energy: -62.486133524681 gnorm: 0.000478483575 xtb: 6.7.1 (edcfbbe)
N           -1.18454558113070       -0.33763643395945       -1.65382662401674
H           -0.55892080171313       -0.93762987320067       -2.17742700804693
H           -0.65192564822806        0.06824557163880       -0.88939884338810
H           -2.50815857639557        1.01328558472415       -1.99081647927387
C           -2.31612542994114       -1.09538853068545       -1.12243723060559
H           -2.71505562176822       -1.70233664506039       -1.94579320054655
C           -1.97818662629124       -2.00799479774051        0.05342022820211
C           -3.40830640203587       -0.08757659078075       -0.77044858583982
H           -1.58443944748659       -1.42310345680506        0.88224061604629
H           -2.87738364842946       -2.51476489688168        0.38622174326481
H           -1.23754421799789       -2.74852974347675       -0.24207393390949
O           -3.32827118438356        1.06214426532379       -1.45789199926409
N           -4.26510354815363       -0.41594308380191        0.08491834294552
H           -5.79296633462679       -1.51390090170310        1.99772399127749
C           -5.42037446288659        0.34221816048661        0.51743376246223
H           -5.24670699878978        0.57856681301432        1.57780866634081
C           -5.77061442229026        1.62269992345759       -0.24484857428365
C           -6.52523295552085       -0.69460343317166        0.43505967345118
H           -4.91928551623392        2.30227870919035       -0.20166593015477
H           -5.93596634722956        1.35714951813257       -1.28888740938529
C           -7.01252292674729        2.33509168188612        0.30352913270240
O           -6.56778764347547       -1.60550266472553        1.42928290235924
H           -7.80793466621064        1.59664801111318        0.44461518309802
C           -6.72778496808839        3.01279707122062        1.64263000562870
C           -7.49141115338255        3.37246304658195       -0.71031655705513
H           -5.92353902116060        3.73815419937169        1.53613241063068
H           -7.61363300647074        3.53548310163481        1.99643184434113
H           -6.44126110023492        2.29021373124848        2.40306404663069
H           -7.75656225317890        2.89651322572877       -1.65104841465751
H           -8.36584851139800        3.89890034146851       -0.33464179404895
H           -6.70794364073370        4.10229647236413       -0.90288949950403
N           -7.26637265715036       -0.74781324248387       -0.57932828385038
H           -7.64704690824807       -0.20187354205772       -2.24990009247812
C           -8.26641988497156       -1.77493897387260       -0.75251170538112
H           -7.87449488248461       -2.77095906180402       -0.51019248063022
C           -9.50811613306520       -1.51000632714049        0.10622999374960
C           -8.68449524332130       -1.74679549299659       -2.23083555219099
H           -9.89173224466201       -0.51112440463817       -0.09312063733360
H          -10.27495746624142       -2.23988065809675       -0.13715541649589
H           -9.25316264458267       -1.58983777068558        1.16001717371197
O           -8.21130410132145       -0.69719229217611       -2.89107971618061
O           -9.38674643101081       -2.58184242054114       -2.72928859981156
