42
 energy: -62.486132276719 gnorm: 0.000630757270 xtb: 6.7.1 (edcfbbe)
N           -0.92049732788369       -0.46098978286196       -0.22045871462454
H           -0.13371322716847       -0.84733699159482       -0.72808623637664
H           -0.85745013123486       -0.79493296985207        0.73753898653800
H           -1.85286341730816        1.22841399125078        0.03851552310221
C           -2.18577978562807       -0.89509871279291       -0.81266153689025
H           -2.11393144121121       -0.71881483838492       -1.89391229893713
C           -2.54530681480751       -2.35785519493370       -0.56602764926277
C           -3.26926616390198        0.04048522775245       -0.29875402627127
H           -2.57006869304553       -2.56338136818231        0.50231412632637
H           -3.53053833854980       -2.55516984302099       -0.97422126699760
H           -1.81707760867770       -3.01529340674569       -1.03652309314801
O           -2.82849749504954        1.25080920953087        0.09660083541725
N           -4.46255082945511       -0.34803169594048       -0.27468329753390
H           -6.36204119709699       -0.70701226620775        2.07302205048296
C           -5.54541323240634        0.52168557879096        0.14114672642939
H           -5.33527003628840        0.94107237795367        1.13743920758662
C           -5.72847608807447        1.66987245250150       -0.86358208325191
C           -6.75473172818776       -0.38227151660283        0.20942261732683
H           -4.84175325198458        2.30246960715104       -0.79808140640442
H           -5.76631521717734        1.22412599604105       -1.85810418490240
C           -6.97937606636385        2.52992561305197       -0.65946345567603
O           -7.01874440658692       -0.95283069552579        1.41045494141205
H           -7.85410928160658        1.93346506532267       -0.93994142709920
C           -7.14215431469352        2.99804914829456        0.78479996334372
C           -6.91131994168635        3.73498602384328       -1.59681910439908
H           -6.23226733425228        3.48409190814945        1.13119856506744
H           -7.95906690426242        3.71273324175943        0.85668507785404
H           -7.37057184437381        2.16726917021849        1.44834363497466
H           -6.78133351651203        3.41051611919123       -2.62625264928730
H           -7.82591117101997        4.32005168894266       -1.53377525929588
H           -6.07460990354407        4.37678272106102       -1.32946038625402
N           -7.42443189698670       -0.62899447207647       -0.82712709442590
H           -9.15762966154196        0.57683348891948       -0.07393751398297
C           -8.50950708927702       -1.58982559377928       -0.80106794910364
H           -9.01809787298407       -1.48623179823814       -1.77214639858283
C           -8.01412302015858       -3.02651629990203       -0.64894861681885
C           -9.55936741214446       -1.26724444102733        0.26885525969072
H           -7.51416935390492       -3.14442069497036        0.30810113721235
H           -8.86092521407705       -3.70541705938178       -0.68521866858006
H           -7.31743718814965       -3.26163761953402       -1.44904287158488
O           -9.76538940325494        0.04531764897796        0.46447618857599
O          -10.19410644044970       -2.09167483787610        0.85831742021982
