42
 energy: -62.486131810300 gnorm: 0.000425895710 xtb: 6.7.1 (edcfbbe)
N           -1.33513544824476        0.25086995298561       -0.91784267024207
H           -0.35716885312300       -0.01559858186471       -0.87157118880035
H           -1.58168310709557        0.70761126372098       -0.04605535088438
H           -3.98770340392326       -0.93212187270331       -2.77116592993941
C           -2.17036171939257       -0.92524605407036       -1.09272748074983
H           -2.01064131328957       -1.28732387195011       -2.11940040363291
C           -1.86606919267344       -2.06823155318702       -0.10994499314268
C           -3.61248793748221       -0.49373503924412       -0.92806411069542
H           -2.01143628988231       -1.71762758577089        0.90919817923994
H           -2.52369663378408       -2.91576506481647       -0.29041998132985
H           -0.83593007413157       -2.39757905682823       -0.23000111797577
O           -4.44581635315608       -0.62512663481265       -1.97866296625436
N           -3.97101358336547       -0.04734085439605        0.19505467452958
H           -4.98452801921159       -1.87522661608990        1.04373915505313
C           -5.33708901366250        0.39525302091744        0.42452878152064
H           -5.37666313780084        0.64635709566138        1.49443406091311
C           -5.69897565845145        1.63318290594573       -0.40415900869441
C           -6.28579386999248       -0.76188643069827        0.19702197703797
H           -4.81710342589051        2.27653667973491       -0.44879863734708
H           -5.92990126905438        1.30438438800258       -1.41728752887553
C           -6.87942116211959        2.42748424985244        0.16649534102648
O           -5.87819673018534       -1.95694770833692        0.68124472048696
H           -7.64892054815529        1.71977719059770        0.48786314606589
C           -6.45197385899874        3.27098962079772        1.36609821175394
C           -7.46573728562958        3.33139620074504       -0.91661380687960
H           -5.70931577375209        4.00718186549025        1.06492728409560
H           -7.30735168016090        3.79908281339432        1.78094598177641
H           -6.02260615362421        2.65505589284025        2.15235545712930
H           -7.81923843115523        2.74837015897456       -1.76345143299166
H           -8.30359159398277        3.90151202581726       -0.52250311724838
H           -6.71266073179371        4.03213552644050       -1.27153555678584
N           -7.38404685905123       -0.58923398679525       -0.38754692267959
H           -8.33745263107065        0.39201048019128       -1.57006032741325
C           -8.31253047056244       -1.66733405662240       -0.62934078630086
H           -7.80388037513724       -2.60951135458238       -0.86798967385047
C           -9.23108315450725       -1.88914464102778        0.57661920165382
C           -9.17976653749378       -1.25064698606653       -1.82744928336142
H           -9.71459851044129       -0.95454453670546        0.85225577038985
H           -9.99148203132974       -2.62100946062938        0.31915751464944
H           -8.65166780838270       -2.25113903454028        1.42195406141614
O           -9.03090584021311        0.02327536889070       -2.16805633735210
O           -9.93056478442198       -2.00217135319351       -2.38430963063102
