42
 energy: -62.486133511800 gnorm: 0.000479792065 xtb: 6.7.1 (edcfbbe)
N           -0.75874745361940       -0.17190202164437        0.13335853355748
H            0.12726402535905       -0.43889455893858       -0.27824594152300
H           -0.79163539692725       -0.56517229755036        1.07009867592739
H           -1.87955261341572        1.39383741452411        0.35225430859190
C           -1.87858134355413       -0.68045025537677       -0.65711409697853
H           -1.68519522989116       -0.40199945990967       -1.70262332783423
C           -2.08649355822466       -2.19144960571500       -0.56821951398805
C           -3.11276285268794        0.10017352584041       -0.22285346161355
H           -2.35033024102636       -2.47551934618172        0.44835948288288
H           -2.88962902085026       -2.50077665375617       -1.22904944251854
H           -1.17481613957183       -2.71135720263514       -0.85729279305654
O           -2.85250883024808        1.31347737465431        0.28368325590895
N           -4.24985679418707       -0.42372890660023       -0.34025044060582
H           -5.22103166905187       -1.55703041764471       -1.42757645246372
C           -5.49864401458454        0.24754589199800       -0.04609884683717
H           -5.59275662090139        0.42974842011441        1.02822054872807
C           -5.62637616947860        1.58469689657384       -0.80692185279118
C           -6.58691237067879       -0.70454469982029       -0.50640251149023
H           -4.80541138181822        2.22762531387323       -0.48749593746154
H           -5.49552623596098        1.37458812470984       -1.87270741918373
C           -6.94690936305100        2.33142463753370       -0.60283454101425
O           -6.19781004135317       -1.63475832512134       -1.38450572867769
H           -7.77102050374733        1.68793803575472       -0.92282471424950
C           -7.16352858466492        2.71419952898623        0.85852636352763
C           -6.94976701081589        3.58594594138489       -1.47582835424693
H           -6.33953624763642        3.32931741976251        1.21522280710303
H           -8.08575577230387        3.28038257369257        0.96266911485432
H           -7.23692667427985        1.83135889437241        1.48746759075629
H           -6.82247784850566        3.32859128739859       -2.52490985195040
H           -7.89146254183188        4.11785978363486       -1.36729043529361
H           -6.14183580141857        4.25459186250699       -1.18502605402002
N           -7.76061469132657       -0.58187847714259       -0.06048761501546
H           -9.04178438109086        0.44298888233662        0.72757503871524
C           -8.82809617175086       -1.45160855264870       -0.50593458606541
H           -8.78884284232754       -1.62606596101689       -1.58877594121800
C           -8.79133650471580       -2.80522131934960        0.21211897483000
C          -10.15482601092816       -0.75737977674923       -0.16697345655286
H           -8.77649850505719       -2.65283163030018        1.28952115847358
H           -9.67547828718278       -3.37717817104737       -0.05530093891373
H           -7.90063775519281       -3.35519195373557       -0.08102878341325
O          -10.01112536550884        0.32135856300386        0.59348200469403
O          -11.22041644369081       -1.16473664416663       -0.53904981108453
