42
 energy: -62.486133521763 gnorm: 0.000478132878 xtb: 6.7.1 (edcfbbe)
N           -2.39249676327572       -1.48533140305951       -0.63716515796343
H           -2.34442916480284       -0.95771950988043       -1.50262528489121
H           -2.22953842631191       -2.46150637710481       -0.85730772720282
H           -1.91497523312492       -0.22216849734828        0.83286357387661
C           -3.70128422346217       -1.31511655176263        0.00532603910454
H           -4.54245199986807       -1.49678198729560       -0.67379707560597
C           -3.77104739167258       -2.26847503225445        1.19723316924470
C           -3.72313736072122        0.13768404041763        0.49130499344421
H           -2.98258276735605       -2.03787453893587        1.91037311348325
H           -4.72968577188777       -2.18587643574124        1.69448369589929
H           -3.63895357535068       -3.29553387376267        0.86114379764570
O           -2.55057957799626        0.48842356796377        1.04523545836642
N           -4.55909523354785        1.06378718933798        0.36521465334049
H           -7.86723951002348        1.05528767944886       -1.52871169839646
C           -5.90298850408698        1.20285667011941       -0.08081448795887
H           -6.40082896326638        1.75906428462801        0.73282025362495
C           -5.85194901199736        2.13160341894771       -1.32332916236602
C           -6.80661278364213       -0.00083272439799       -0.31512162132330
H           -4.84898928461324        2.56033756514574       -1.35130244522844
H           -5.96561121959332        1.53485001771871       -2.23371734215632
C           -6.86460500860349        3.28859102395634       -1.30020691127670
O           -7.85104447098981        0.16488864579029       -1.15596870602068
H           -7.83728347399356        2.93711697884547       -0.92891232876142
C           -6.38365546386606        4.39416587734145       -0.36319114036961
C           -7.06138850286594        3.84272905767974       -2.71062703677718
H           -5.47452961032895        4.84577027013478       -0.75246310489177
H           -7.14053548267040        5.16936136983624       -0.26798138994853
H           -6.16723324785977        3.99902034627249        0.62578628471331
H           -7.45965252554960        3.08509102385332       -3.38362628678835
H           -7.75400431131630        4.68059518189241       -2.69535686103050
H           -6.11277987795868        4.19147313113960       -3.11208031219712
N           -6.61540763182539       -1.08250728464442        0.30293115004595
H           -6.63673640295896       -1.38789667593220        2.14240010972731
C           -7.52897611306931       -2.19687905071730        0.17561150898746
H           -8.51516404352160       -1.88192972451830       -0.19379968958447
C           -6.97433878097160       -3.27244544233795       -0.75998833249846
C           -7.73911958608702       -2.80000678986581        1.57198961711614
H           -5.98290672510546       -3.57547862211117       -0.43332634991951
H           -7.63403589018969       -4.13500436731445       -0.73315595178388
H           -6.91699183513414       -2.89331870142714       -1.77759920699544
O           -7.13387357667742       -2.13005717347084        2.55118912109256
O           -8.39745193182492       -3.78198179721167        1.76520361523283
