42
 energy: -62.486133511472 gnorm: 0.000479939129 xtb: 6.7.1 (edcfbbe)
N           -1.75191614315182       -0.98123138098521       -1.97215457934964
H           -1.11473043032132       -1.72603700668714       -2.22707642833395
H           -1.19426219713304       -0.15812833111664       -1.76168141236847
H           -3.38917264725493       -0.16958416668960       -2.58146656450013
C           -2.54937042941825       -1.35135022929735       -0.80398507780623
H           -2.94357898799416       -2.35891260740762       -0.98576972079591
C           -1.78504994031721       -1.34093207596394        0.51718720114721
C           -3.76217912786650       -0.42537209844346       -0.76371266847324
H           -1.36209168900572       -0.35534457393252        0.69664837257242
H           -2.46890019254355       -1.57120164111823        1.32522714396192
H           -0.98081929728730       -2.07412179852596        0.50093029093044
O           -4.06753843685311        0.13001289948774       -1.94267324270102
N           -4.36428892896314       -0.28566315279790        0.33072588928756
H           -7.58000986473434        0.28124371420013        1.87916395971670
C           -5.57066295605060        0.47996985721860        0.51814570455443
H           -5.56322526135872        0.73932451219457        1.58792498601166
C           -5.69991152908143        1.76711703523450       -0.31839310318129
C           -6.75984424396555       -0.41584357163232        0.25266940877933
H           -4.75551418763889        2.31085602583990       -0.24329330599372
H           -5.83901583331568        1.47389832012647       -1.35845417376206
C           -6.84948626083898        2.68715574430760        0.10880293735693
O           -7.80586316997256       -0.31490258288655        1.15485194759192
H           -7.77120929490018        2.10057257173220        0.19443007670490
C           -6.56858702429921        3.37406351606090        1.44509487747490
C           -7.07494905139573        3.74313651041886       -0.97232611873876
H           -5.67634788738493        3.99183610878925        1.36665465030340
H           -7.40320002778400        4.01448827481087        1.72300492847590
H           -6.41172910348363        2.65841241963447        2.24999186354225
H           -7.34515667199180        3.27238155757965       -1.91411613442510
H           -7.87673606153482        4.41942596362250       -0.68449056993009
H           -6.17023110794835        4.32733897744001       -1.12603826709309
N           -6.75993531388452       -1.16072734102963       -0.74866545188115
H           -9.13025562086714       -0.39049089003867       -0.08541314197299
C           -7.78902679674226       -2.07599617391629       -1.16452462364025
H           -7.34914937536981       -2.65182557205452       -1.98706156017712
C           -8.26070983351480       -3.04283069795062       -0.06963840519681
C           -9.01442669981516       -1.35253539594519       -1.74405014405621
H           -8.76206334880253       -2.51643194419994        0.73958772631359
H           -8.94791376856000       -3.76779500386838       -0.49880958932445
H           -7.40097604964031       -3.56798938424211        0.34038015237841
O           -9.59139776172619       -0.45716584489653       -0.94269960424296
O           -9.44475871244609       -1.59084615686624       -2.83599295246634
