42
 energy: -62.486132545221 gnorm: 0.000650254659 xtb: 6.7.1 (edcfbbe)
N           -0.93459491512413       -0.48261766404080       -0.42027826007382
H           -0.19301150160176       -0.95049549500986       -0.92703777353769
H           -0.79505747968966       -0.67372190410836        0.56771793029414
H           -1.84174333779986        1.24163443937981       -0.36033828669149
C           -2.24520548285627       -0.97876024296927       -0.83928235685835
H           -2.26371748758907       -0.95352745621262       -1.93689091166478
C           -2.58327213392851       -2.38962512886414       -0.36515235774757
C           -3.28170092379588        0.03404199400768       -0.37319794872839
H           -2.52540389237345       -2.44457364609771        0.72019830424632
H           -3.59649850014274       -2.63319598613057       -0.66570360060286
H           -1.89251418983436       -3.11265981014696       -0.79435855261681
O           -2.80773993544683        1.28560196713261       -0.21575781197017
N           -4.46005278955844       -0.34590506354821       -0.17219344760904
H           -6.41241033903590       -0.71954362960856        2.09000632271309
C           -5.54277280400790        0.54174244634155        0.20132696417243
H           -5.35942855850447        0.94175745845051        1.21032499608116
C           -5.70645450025868        1.70778618405899       -0.78598333808954
C           -6.75469903750012       -0.36386518144607        0.22347828424589
H           -4.83100945792776        2.35043655040025       -0.68554548924226
H           -5.71174338918124        1.28208773635444       -1.79005766199818
C           -6.97275278766474        2.55010032797248       -0.60160108574876
O           -7.05439181475561       -0.94979912354873        1.40775716739066
H           -7.83316419255733        1.95057302320894       -0.91781979576519
C           -7.18202664899115        2.98936441824871        0.84589719449739
C           -6.89106943064072        3.77343091902046       -1.51391354687458
H           -6.28864705821668        3.48035282917766        1.22677966911458
H           -8.00958438583529        3.69269660688979        0.90746726419539
H           -7.41874960508068        2.14392749037161        1.48766929630795
H           -6.73155073318320        3.46953768173143       -2.54548387164316
H           -7.81179217766632        4.35010803636529       -1.46394608446334
H           -6.06677958008202        4.41654788942421       -1.21308590950949
N           -7.38540147493072       -0.60542572431421       -0.83868466644362
H           -9.15620328077460        0.57013308106910       -0.12208565326764
C           -8.46005142027492       -1.57807069751105       -0.86094494821859
H           -8.93754031208245       -1.46746477026274       -1.84695383771948
C           -7.95142822459427       -3.01048512788858       -0.71147670901411
C           -9.54927514218385       -1.28332825521852        0.17727135355903
H           -7.47644051723322       -3.13340877396058        0.25775884880936
H           -8.78842359436375       -3.69916178815841       -0.77888156110891
H           -7.22990716248761       -3.22792097249526       -1.49458158208326
O           -9.77678164964986        0.02353977573097        0.38572946727304
O          -10.19519941325762       -2.12387024009488        0.73078906717986
