42
 energy: -62.486133509878 gnorm: 0.000479866535 xtb: 6.7.1 (edcfbbe)
N           -2.21106053778159       -2.50900518630140       -0.38128586964810
H           -1.25754972019870       -2.85026719276393       -0.37948398182977
H           -2.63221797282849       -2.78262833942816       -1.26552164373423
H           -3.79498144046629       -2.45626076619370        0.69296960046220
C           -2.24296510096333       -1.05236172834529       -0.25275179316491
H           -1.59805848824262       -0.78884302585136        0.59575069246269
C           -1.78372942046258       -0.29211936905702       -1.49370450968804
C           -3.66786053161266       -0.67100221875858        0.13200864123340
H           -2.40270278109978       -0.56426179378161       -2.34588858196729
H           -1.89156928611942        0.77286746389515       -1.32198214473040
H           -0.74385639892277       -0.52110073495638       -1.71935998652655
O           -4.35649495884477       -1.65536041978288        0.74054524651234
N           -4.05848672956599        0.50218536284548       -0.07410219904765
H           -6.33457792992589        0.50393512628537        2.37647903630025
C           -5.38761203518234        1.00334765292133        0.16943553806238
H           -5.29612074487075        1.71163364343617        1.00682464441460
C           -5.81450435128650        1.77164108401553       -1.09166177437183
C           -6.43017231218303       -0.03973181389385        0.50743931905404
H           -4.99614082039268        2.43613293432524       -1.37056011145991
H           -5.94509221909141        1.03118024341905       -1.88058568478860
C           -7.11044739085259        2.57124075336466       -0.92628195844623
O           -6.87760054823044       -0.06123381435628        1.81448712231067
H           -7.87756195194686        1.91475593990492       -0.50087562790243
C           -6.92482906896076        3.77626023572934       -0.00602557967577
C           -7.59458823359155        3.03772481998671       -2.29761150501381
H           -6.14841092074992        4.43177788016012       -0.39503692272614
H           -7.85049945903156        4.34320102744728        0.06077343180397
H           -6.64603604712054        3.47539470303027        1.00113890452192
H           -7.78138676427390        2.18491011205828       -2.94491296298299
H           -8.51799857291665        3.60414790713073       -2.20366998311273
H           -6.84667953899420        3.67287195661590       -2.76773491009202
N           -6.83734592279718       -0.80518590270603       -0.39379420970149
H           -8.63325862195521       -0.31690187431830        1.38573992172583
C           -7.80905208560892       -1.85940091513089       -0.26754006223150
H           -7.76423083868244       -2.40877680019964       -1.21529521678373
C           -7.56045087291809       -2.83438339939111        0.89128187903417
C           -9.23568695700444       -1.30459016073527       -0.14862992792670
H           -7.70003708079548       -2.35305568207971        1.85651257238512
H           -8.24666100321123       -3.67385028172981        0.81112190646417
H           -6.53772823318847       -3.19864977046750        0.83612015627359
O           -9.44295981493181       -0.45714804390554        0.86033953468194
O          -10.11698752224462       -1.62111518940949       -0.89573590931410
