42
 energy: -62.486133510932 gnorm: 0.000480082926 xtb: 6.7.1 (edcfbbe)
N           -2.23676874687935       -1.28536203224709       -0.77023538607215
H           -2.07406546984415       -0.64043996984256       -1.53647201498480
H           -2.11044897629252       -2.22820435571902       -1.12038604510586
H           -1.76663767848679       -0.32591473193603        0.88353420241129
C           -3.57582135909054       -1.11308834513231       -0.20935181669649
H           -4.36434373795577       -1.07376791909647       -0.97387300758695
C           -3.85604600407645       -2.26163111770309        0.76222222111539
C           -3.54893299220330        0.17578809038592        0.61971871177706
H           -3.09114618956088       -2.28832147398002        1.53547498404170
H           -4.82358162664725       -2.12208880218183        1.23600333761067
H           -3.84721785693444       -3.21453262371805        0.23544371390230
O           -2.37727596834070        0.34953050723160        1.24125847067381
N           -4.45241786715333        1.01625466351468        0.85567627750502
H           -6.32213618674899        0.60766271288312       -2.11311952037373
C           -5.72705662043062        1.21181235647030        0.22872961579326
H           -6.35766495945939        1.60235140377149        1.03924917423282
C           -5.54960998810646        2.32719201957974       -0.81706746953142
C           -6.46775400152924       -0.01228303139494       -0.29546157105342
H           -4.89201481376589        3.07119853225318       -0.36436335626092
H           -5.00985163463077        1.93505591710917       -1.68776898951717
C           -6.85868444911552        3.00975017259931       -1.24434943210549
O           -6.65670076940724       -0.15753434579958       -1.62730001765096
H           -7.64259018946205        2.25671322416531       -1.39064991376267
C           -7.33816976767828        3.98256648145575       -0.16967194892927
C           -6.64958744524656        3.75482460347521       -2.56280718438621
H           -6.60097988194098        4.76692963721268       -0.01457531686744
H           -8.27487735332199        4.44546555268257       -0.47090183938472
H           -7.50060114962152        3.47288107216213        0.77620857024641
H           -6.37188555417485        3.07401379192490       -3.36606548741379
H           -7.56192987214788        4.26776055014665       -2.85664143434400
H           -5.86074480256472        4.49582591692214       -2.45443868162967
N           -6.92478949087206       -0.83097313662212        0.54572237103969
H           -7.14754644621703       -1.27674465814657        2.29052972605720
C           -7.74435156279615       -1.97019737374138        0.19522182198321
H           -8.68374654424015       -1.61066318624470       -0.24837717080726
C           -7.12525105118308       -2.98548741431708       -0.76851510116877
C           -8.10786555228828       -2.68024146529238        1.51251871938279
H           -6.17625941863156       -3.34499938177432       -0.38086396135378
H           -7.80544146567477       -3.82787712641746       -0.85914527494023
H           -6.97016366917894       -2.53984188688523       -1.74685711993514
O           -7.64136005495816       -2.07332395757037        2.59621924987728
O           -8.75336771442959       -3.69048492484495        1.54822122556976
