42
 energy: -62.486133509855 gnorm: 0.000479963069 xtb: 6.7.1 (edcfbbe)
N           -1.12689550393340       -0.57881368500600        0.65345345916892
H           -0.22452682787420       -0.93615114634604        0.36406966618921
H           -1.35720550802675       -1.01644424893494        1.54155358470487
H           -2.08876572988364        1.08260740587361        0.85911558705096
C           -2.15722830034331       -0.89832624505637       -0.33397698103877
H           -1.75871089294953       -0.62199496365826       -1.31925848914784
C           -2.58923253557742       -2.36254541753843       -0.35677077612555
C           -3.33607527834428        0.02513593321083       -0.06241818242110
H           -2.96456295263365       -2.65601248500651        0.62128811956168
H           -3.38792774685049       -2.49347795654677       -1.07871164312674
H           -1.75071242594642       -3.00287832868999       -0.62348357811909
O           -3.03169220946189        1.14983364073079        0.60653907197814
N           -4.48415748157462       -0.29713896154032       -0.46055575609220
H           -6.23074644599528       -0.13126828065161       -2.46540557280535
C           -5.62569170953941        0.57334679473714       -0.24795035152562
H           -5.72126400363954        0.80546170417273        0.81899559132322
C           -5.52225858691529        1.88441759020394       -1.04459152633767
C           -6.82396519417306       -0.24894571748816       -0.66246323853658
H           -4.73092319888486        2.48582912173273       -0.59475133408809
H           -5.21258537757777        1.66057767630122       -2.07147906346258
C           -6.82472454771394        2.69299593850477       -1.07111226053107
O           -6.97783266749903       -0.49744366636999       -1.97593553079669
H           -7.61360295844087        2.08699085754978       -1.53132307343758
C           -7.27636563702026        3.07824066233843        0.33531934034155
C           -6.62347021486154        3.94578087169315       -1.92267563877201
H           -6.47810438664200        3.59712913949806        0.86168857492883
H           -8.13858062709125        3.73882548793728        0.28219536784487
H           -7.56058853814157        2.19904503672381        0.90734538751513
H           -6.31562631472961        3.68489515188797       -2.93322238944077
H           -7.54757106399062        4.51510475347803       -1.98471713961543
H           -5.85766708384221        4.58163743647596       -1.48356837813556
N           -7.56596299124488       -0.74244455526181        0.22726694831738
H           -8.14937295445907       -0.78145311249716        1.93799825278226
C           -8.68763556612461       -1.59553678311826       -0.10082843580686
H           -9.27583358709096       -1.19247897943892       -0.93465314202979
C           -8.23469073309869       -3.01593977693877       -0.45634495568399
C           -9.58140365971718       -1.66920762866790        1.14575815798290
H           -7.61645540060353       -3.41821966397938        0.34345792748376
H           -9.10808848624439       -3.64867489882473       -0.58623306078492
H           -7.65666189489247       -2.99996064590028       -1.37644005449133
O           -9.02103724691949       -1.14104422936951        2.22775431022293
O          -10.66978678469720       -2.17347965731087        1.14400625284154
