42
 energy: -62.486133516073 gnorm: 0.000478955160 xtb: 6.7.1 (edcfbbe)
N           -2.20016872034763       -1.35551861613987        1.53704544926747
H           -1.62282261655970       -0.54213152991438        1.72208067091765
H           -1.60812092543305       -2.17656002647819        1.57315753603623
H           -3.94509640027128       -0.85645073731837        2.21434607468049
C           -2.85742472382374       -1.24332055749147        0.23696556684125
H           -2.21923063505371       -0.82568106651210       -0.55390310550809
C           -3.37274983464830       -2.61525343054696       -0.20186542520793
C           -4.06316077260849       -0.34054527000828        0.41868411207319
H           -4.01581356459064       -3.03638823450357        0.56807531700676
H           -3.94095119676902       -2.51067393142180       -1.12124214275684
H           -2.54116400566902       -3.29494774375096       -0.37616902064782
O           -4.56574269531860       -0.33173358781925        1.66498664285335
N           -4.50971710065242        0.30197846629293       -0.56500574665949
H           -7.60922943829568        1.01711510500520       -2.09004634702123
C           -5.73622276117552        1.06825315375318       -0.45031336314342
H           -5.81058283470714        1.51606360920921        0.55237825867881
C           -5.71081390968018        2.16576508588139       -1.51648733523176
C           -6.89682554589737        0.08999847311519       -0.56650208477614
H           -4.71051622589433        2.60206504509132       -1.49780611845770
H           -5.82056713953595        1.71054378218987       -2.50564769442969
C           -6.74737192295263        3.27968882349113       -1.29787407422536
O           -7.81160354134815        0.24753225103436       -1.54274538431932
H           -7.69186693934831        2.84622512585198       -0.94638412060968
C           -6.26532737027344        4.26395854614938       -0.23378699352748
C           -7.00965110500739        4.01937125803943       -2.60952256262597
H           -5.35304642675641        4.75775454117284       -0.56166744357549
H           -7.02040839918959        5.02492063887905       -0.05054405127929
H           -6.06190553854005        3.75492726220099        0.70497849763155
H           -7.41436497956950        3.35195145444535       -3.36858983996106
H           -7.72145803645697        4.82675230819189       -2.45534168062887
H           -6.08481919914810        4.44722657990151       -2.99024543899032
N           -6.93409824980056       -0.85553033414575        0.26114004888842
H           -6.24973010617875       -1.55515783671813        1.79052494457541
C           -7.92746227472043       -1.89844389249932        0.25968403609758
H           -8.94404853833698       -1.48560005579964        0.30202170973050
C           -7.82080317664969       -2.81979334576266       -0.96011541190769
C           -7.68909544689180       -2.73366514116876        1.52989700023156
H           -6.80037764199581       -3.18559981056086       -1.05789869378720
H           -8.49048938753989       -3.66466858431443       -0.82620902218197
H           -8.09232617535809       -2.27985047808541       -1.86317018188922
O           -6.63378441797320       -2.35368919520718        2.23522538754396
O           -8.38523134262680       -3.66291394026554        1.83682727956708
