42
 energy: -62.486132306385 gnorm: 0.000619322497 xtb: 6.7.1 (edcfbbe)
N           -1.33189714339769       -1.31541646806290        0.44711315333469
H           -0.73291308304003       -0.50734755336692        0.57942750366973
H           -0.74069546406012       -2.10714718259625        0.22405365992190
H           -2.81798662306537       -0.96888783694166        1.61093126665991
C           -2.29987928566759       -1.07416015771010       -0.62371974484782
H           -1.89962720935430       -0.48811497646636       -1.46124968166376
C           -2.83812872676503       -2.40207877492085       -1.15781464309599
C           -3.46187870772997       -0.31028996226273       -0.02000982485650
H           -3.22585488295940       -3.00465343082095       -0.33877959855737
H           -3.63953922812778       -2.20473643903736       -1.86349944199272
H           -2.04950227937324       -2.95804613957468       -1.66029318482129
O           -3.60262440982090       -0.45890039391456        1.31853974273846
N           -4.23156045294992        0.35075150874977       -0.75927147974302
H           -5.92095105809063        0.00802366755475        1.97742405089081
C           -5.37897366998747        1.01774715477371       -0.17334450522098
H           -5.09855274638156        1.50733834341580        0.77099537683919
C           -5.89596055590492        2.04205476383001       -1.18680828320158
C           -6.42573031071252       -0.03791352185438        0.10052560988990
H           -5.09482909598925        2.75412546964044       -1.39093270910092
H           -6.10472497174479        1.48814759255402       -2.10117709875086
C           -7.15728811916271        2.78689145849209       -0.74090065704854
O           -6.63714952507556       -0.34251318758741        1.43181879902494
H           -7.92385014683930        2.04931883208576       -0.47968971955734
C           -6.89955071320822        3.67952906356985        0.47192951194142
C           -7.68239157024047        3.62844128818817       -1.90214874028697
H           -6.09792447178837        4.38448279014390        0.26018858466256
H           -7.79571747433927        4.24443314965192        0.71823048598298
H           -6.62433590058533        3.09642511335838        1.34750871492066
H           -7.90231646420403        2.99746173027950       -2.75914633426086
H           -8.59385671008662        4.14784728671995       -1.61596619756822
H           -6.94256397281671        4.36910847874127       -2.19879010496735
N           -6.97476813229197       -0.62489260271287       -0.85619555462808
H           -8.43262040863382       -0.53292906176128        1.26673070417250
C           -7.92136836017944       -1.70555257049041       -0.78558229438396
H           -8.05440316007183       -2.04071424504298       -1.82072252875427
C           -7.46882175629852       -2.89644987170412        0.07193979849869
C           -9.30342639075726       -1.24802429502714       -0.29326824942766
H           -7.39465770339666       -2.62676487947985        1.12324123159313
H           -8.18278917140827       -3.70932296104852       -0.03459539396367
H           -6.49293524531653       -3.23480465663178       -0.26988628841968
O           -9.32381484456899       -0.61591661589243        0.87957458252616
O          -10.30783110916790       -1.46857569611816       -0.90744539009610
