42
 energy: -62.486133511355 gnorm: 0.000479762260 xtb: 6.7.1 (edcfbbe)
N           -1.20138902922375       -0.83460991601923       -0.85376228415195
H           -0.53814523073655       -1.58919689975422       -0.98046193685703
H           -0.76041945119709       -0.13659620892726       -0.26078117656728
H           -2.35044714495193        0.24523084210614       -1.89241062329407
C           -2.42991905964684       -1.31597073144147       -0.22119208086695
H           -2.71503213340914       -2.24802646629502       -0.72556840506799
C           -2.31755258475378       -1.56936879812286        1.27912370429584
C           -3.52564245308561       -0.30045697802210       -0.53435610314227
H           -2.00007307521213       -0.66181871615314        1.78898909525088
H           -3.28849128501252       -1.85713150655199        1.66713100790384
H           -1.59678794718159       -2.35957006176813        1.47959472248270
O           -3.26736175246877        0.46231421424480       -1.62041196061607
N           -4.56151494073152       -0.29815835103054        0.17128347796434
H           -5.91465182031628        0.04889651712059       -2.30411759634575
C           -5.69906075727637        0.58444877899393        0.03801340391607
H           -6.02470984781709        0.75177449597936        1.07098784183479
C           -5.50161074013363        1.93795380768052       -0.65532675848686
C           -6.77097556577461       -0.25813637668413       -0.62119295052432
H           -4.74783033568179        2.49527442070196       -0.09441760246256
H           -5.10856655253415        1.80325617195359       -1.66570653193608
C           -6.79440909501573        2.76078211061165       -0.73489823377830
O           -6.67438934432211       -0.43579589882295       -1.95414098523828
H           -7.55860220867530        2.16854857390640       -1.25200472868366
C           -7.32914354769025        3.12871321562904        0.64703521850868
C           -6.53402387821020        4.02818375818960       -1.54854152321550
H           -6.56198736413266        3.63448154418364        1.22978588739456
H           -8.18071747362148        3.79805183163744        0.54926404562364
H           -7.65767336530355        2.24669131726211        1.18982836596890
H           -6.17557453335582        3.78443401111843       -2.54652387753171
H           -7.44637701246884        4.61116391061678       -1.64749064038902
H           -5.78494606486341        4.64497511444134       -1.05633352595553
N           -7.64155542339408       -0.82053788391046        0.09157705880600
H           -8.55657534245661       -0.94470131719691        1.65805351949135
C           -8.64411426677665       -1.69298916195182       -0.47864034896174
H           -9.05736099301543       -1.28870812348957       -1.41131569916645
C           -8.08091766756429       -3.09199738138100       -0.75279732417499
C           -9.77510418816673       -1.82061144732483        0.55217238312497
H           -7.62415723489159       -3.49052026611420        0.15073333145747
H           -8.88791624892761       -3.74832262734863       -1.06623191763893
H           -7.32924235471606       -3.04113143742306       -1.53640572351382
O           -9.46215080882741       -1.32450718339415        1.74311412117868
O          -10.82907112911448       -2.33833668550051        0.30727846791251
