42
 energy: -62.486133513564 gnorm: 0.000479952853 xtb: 6.7.1 (edcfbbe)
N           -1.77471831122086       -0.10555062316470        1.53869408147315
H           -0.83169042589620       -0.46119457510471        1.43619244857252
H           -2.14937863356686       -0.48579438084761        2.40376635754690
H           -2.76354714298941        1.56057124741845        1.37856323262229
C           -2.61408450362437       -0.52764910500937        0.41626140442898
H           -2.06472757805304       -0.28357830996478       -0.50343391345833
C           -2.98094591853678       -2.00878810704587        0.40576313806183
C           -3.84962428898216        0.35724427354671        0.43111944372132
H           -3.51799093620798       -2.27201198452809        1.31351595870010
H           -3.62537444186035       -2.21442308888532       -0.44122337039319
H           -2.08395321656204       -2.62049244205307        0.33359183242914
O           -3.66126238585309        1.57092929007607        0.99095864217271
N           -4.92809705946919       -0.06588611511967       -0.05140099088707
H           -8.43274811762349        1.43239204591191       -0.03848734583377
C           -6.10134164365898        0.76531136153503       -0.11807593145197
H           -6.10763859371495        1.51973825435166        0.68646642317443
C           -6.18916121697860        1.47697377098016       -1.49335676264751
C           -7.30786699586469       -0.12680512745637        0.05517478596739
H           -5.22560541140767        1.36332307340396       -1.99264795188131
H           -6.92867028585922        0.95969394194992       -2.10975838048304
C           -6.53363145005567        2.97010256790439       -1.41228354267258
O           -8.52070903857747        0.47734843738413        0.07089472487376
H           -7.34918875995439        3.12185577153994       -0.69180699338027
C           -5.32713492526106        3.78103116701231       -0.94596156531833
C           -7.01027036702822        3.46843215946320       -2.77551727298689
H           -4.54316031956050        3.74776652624111       -1.69946127316939
H           -5.60423706287360        4.82033847756093       -0.78451785078298
H           -4.92237830977734        3.38277999079218       -0.01952168794295
H           -7.90779956518961        2.94069989074792       -3.09168342413681
H           -7.23488930041768        4.53169062374210       -2.73351057244477
H           -6.23807044037880        3.31048087968413       -3.52492261352313
N           -7.14863065059928       -1.36419151336877        0.17439269260096
H           -5.98699887634248       -2.66996328985965        0.46873415028758
C           -8.21590199990369       -2.31333382969265        0.35178489884965
H           -8.94714028237344       -1.98111707279755        1.09993405448919
C           -8.94881419697179       -2.60506429808152       -0.96177642339314
C           -7.55205600011884       -3.61266618700804        0.84442467774193
H           -8.23176813601354       -2.88872875415367       -1.72945435206714
H           -9.64893956185943       -3.42138970059377       -0.80812015048017
H           -9.48983466155897       -1.72081401188337       -1.28954922962325
O           -6.22827725023210       -3.57620737156538        0.79365444751889
O           -8.17793299535239       -4.56507933644322        1.22151869135646
