42
 energy: -62.486133496768 gnorm: 0.000483140975 xtb: 6.7.1 (edcfbbe)
N           -1.14105267300678       -0.80302247297712        0.86199212830274
H           -0.18203757733786       -1.02626306019722        0.62497663614062
H           -1.47980855256774       -1.53172020328772        1.48454478471066
H           -2.23461327191821        0.68191179999151        1.46836572051754
C           -1.97789481958474       -0.74791859479273       -0.33532369073254
H           -1.45409060263732       -0.11883794553880       -1.06748527779447
C           -2.28166231077525       -2.10641312410992       -0.96420193418124
C           -3.25050333200253       -0.00878850766818        0.05077462475396
H           -2.82709256559820       -2.73156007634476       -0.26058152827811
H           -2.89470707826807       -1.97351612838376       -1.84896697672916
H           -1.35738988609120       -2.60857179180105       -1.24363910944737
O           -3.13233583574461        0.81304277521401        1.10327489694479
N           -4.30600902858242       -0.18672902941443       -0.61132976051872
H           -5.57351776044365       -0.82740262503866       -2.14580142559947
C           -5.52533173514494        0.51903059992163       -0.26824359575807
H           -5.58668079900700        0.73079473646898        0.80402095227889
C           -5.60872697737450        1.83255364083700       -1.06527238975904
C           -6.64358828544582       -0.41330903867418       -0.66710612341160
H           -4.79414217403164        2.47860641056642       -0.73075177100656
H           -5.44063462442201        1.60458198984993       -2.12193804619515
C           -6.94427825081537        2.56816740187313       -0.91583269493573
O           -6.48269710873143       -1.01252977921579       -1.85703151664787
H           -7.75416861614216        1.88311466279729       -1.18897676672705
C           -7.17244201343565        3.04042678999466        0.51728668022180
C           -6.97377165353795        3.75991537110534       -1.87190604754608
H           -6.35627300437927        3.68454327652929        0.83828296590964
H           -8.10042588235078        3.60318142154494        0.58187656131267
H           -7.24173758232210        2.19782224182835        1.19909947798486
H           -6.84455714340076        3.43509173462329       -2.90205764242006
H           -7.92383790892905        4.28276070668398       -1.79608827753373
H           -6.17684073825906        4.46003398137384       -1.62925434660775
N           -7.60320114329856       -0.62983745354697        0.11980516124141
H           -8.65393571644460       -0.04691026406759        1.47289324089434
C           -8.67705984313853       -1.53476036293353       -0.23230206280634
H           -8.97003173001315       -1.43294792985138       -1.28483873168146
C           -8.29038210129545       -2.99364307248702        0.03283660177472
C           -9.88241083366958       -1.17930021177044        0.65040863090093
H           -7.94898824280960       -3.10616640151509        1.05992384092988
H           -9.15785188406619       -3.62803411981156       -0.12626906049346
H           -7.49227558185295       -3.29374412687442       -0.64156432207697
O           -9.60055814823498       -0.29357448245457        1.59846379002263
O          -10.96664624223581       -1.67210456852065        0.50687140358265
