42
 energy: -62.486133507206 gnorm: 0.000480705098 xtb: 6.7.1 (edcfbbe)
N           -1.53924073373256       -0.59047711386954        0.75786806998614
H           -0.76622684538999       -1.23780265678136        0.65729165577544
H           -1.70736477684867       -0.47189936310146        1.75341307966114
H           -2.16286953792786        1.09306587848719        0.02111942314889
C           -2.74481181978857       -1.12089530813555        0.11866896311519
H           -2.46142211278665       -1.41069166209694       -0.90260473796121
C           -3.37488914748742       -2.31730475238707        0.82422052788174
C           -3.72065954314395        0.04136054368414       -0.01742642074263
H           -3.69348439656133       -2.04011097163478        1.82573473452545
H           -4.24625180388355       -2.64828971119568        0.27138085073435
H           -2.66032626966737       -3.13524078853839        0.89116613206486
O           -3.11577754609935        1.24465274911982       -0.13933402290259
N           -4.94916092341248       -0.19629732936899        0.00166451175566
H           -8.02691618505488        1.26663689673503       -1.54988863560385
C           -6.02389991674139        0.75130343752938       -0.15686264859207
H           -6.18423633252458        1.23025474726815        0.82079527144068
C           -5.81018904620335        1.84802442767625       -1.21822946234343
C           -7.25806635433910       -0.09951261136547       -0.43343080461917
H           -4.74667965706068        2.07698166083140       -1.26220690891477
H           -6.08605930698249        1.45541659526302       -2.20251225454913
C           -6.56307666998454        3.15574725728278       -0.91707295359238
O           -8.24607112473620        0.38919848543002       -1.21159404194525
H           -7.55698214426917        2.93704104355489       -0.50383268137206
C           -5.80257554353446        3.97854083727821        0.12117685623517
C           -6.74029762029339        3.96918837114974       -2.19870478986999
H           -4.83061027445473        4.27048859416837       -0.26970346334631
H           -6.35759901402147        4.87838821673384        0.37654986936897
H           -5.64278009583584        3.40616736571001        1.03172397416512
H           -7.32218296536685        3.42311474902307       -2.93965025647128
H           -7.25337446452164        4.90448848171842       -1.98756126543307
H           -5.77006629076663        4.20216274580479       -2.63166174534002
N           -7.31274636802387       -1.22678871102786        0.11635783544215
H           -6.49014119087753       -2.37693228790846        1.16299987310139
C           -8.39452974890439       -2.16590982518862       -0.02486369165865
H           -9.35339007254151       -1.72452779533773        0.27662835224312
C           -8.53135729432583       -2.71825770001172       -1.44738790695831
C           -8.07055661180358       -3.33256851948616        0.92877257147059
H           -7.56971994588185       -3.09498212979880       -1.79018866186960
H           -9.25241834154543       -3.53089583563263       -1.44580906426622
H           -8.86768621392453       -1.93599107220212       -2.12257911005303
O           -6.87487470387948       -3.23267506183401        1.49022738577129
O           -8.82462234780972       -4.24619787780831        1.12428102785104
