42
 energy: -62.486133508287 gnorm: 0.000480433617 xtb: 6.7.1 (edcfbbe)
N           -2.17534839751079       -1.47831601290882        1.48287884272802
H           -1.71754681061113       -0.65647635768479        1.86306530259415
H           -1.48727332398967       -2.21920110494615        1.41976126436058
H           -4.03167928976741       -1.26824767814577        2.07109605505433
C           -2.75102699286684       -1.18970909653970        0.17177609079349
H           -2.09775860217690       -0.60383447672776       -0.48943328405738
C           -3.12637900288612       -2.50138196074342       -0.52045658873129
C           -4.03112081240795       -0.40711933683616        0.40643348916618
H           -3.77451197907694       -3.09027973655756        0.12540276325393
H           -3.64731137509581       -2.28990670812786       -1.44956600349352
H           -2.23362645038748       -3.08250281955711       -0.74164845416032
O           -4.63621732579383       -0.67891918361465        1.57318298165423
N           -4.40152074233957        0.42577645394330       -0.45830800028953
H           -7.12548879795589        0.72278917653833       -2.35733516098947
C           -5.67993999813763        1.11227229912757       -0.39199984913329
H           -5.81632632143347        1.52810756691934        0.61737966489405
C           -5.65492490525533        2.24064351925649       -1.42381916734469
C           -6.79101102379798        0.09204377771428       -0.57358746745246
H           -4.74517020366208        2.81530380919417       -1.24061803352759
H           -5.54144474833715        1.81264026443024       -2.42521191451351
C           -6.86576418291094        3.18342600823371       -1.36538197840122
O           -7.44475767948018        0.03959983535811       -1.75404514816182
H           -7.78920317954590        2.59721978359636       -1.28953504409789
C           -6.79121825114626        4.09837060942401       -0.14468040308410
C           -6.92863810909696        4.02379522703560       -2.64061418116018
H           -5.88695859878145        4.70234394586832       -0.17855073231536
H           -7.64902520722277        4.76647828897186       -0.12190766981443
H           -6.78793573343226        3.52292384053216        0.77729576516256
H           -7.03537727552834        3.39568960398320       -3.52316824686911
H           -7.77503791898585        4.70537173826599       -2.60580184398250
H           -6.01994464428495        4.61211239473429       -2.74808915399271
N           -7.01418748851654       -0.71567914605372        0.36276276915307
H           -6.53575423265705       -1.35056548460287        2.02298749601673
C           -7.97323397566218       -1.78867415030358        0.28162610240467
H           -8.97480762153749       -1.41407528586864        0.03534159737938
C           -7.58270525164155       -2.86146771577790       -0.74234764730027
C           -8.02021407030488       -2.44772734287478        1.67025724534011
H           -6.56643321867948       -3.20196999629837       -0.55206028706847
H           -8.26307601563046       -3.70368898235976       -0.65286306402212
H           -7.63758711550764       -2.45659006624045       -1.74920452167778
O           -7.06090232100596       -2.04659194604982        2.49027089643218
O           -8.83780204815671       -3.27600938319046        1.96765072448060
