42
 energy: -62.486133513874 gnorm: 0.000480130950 xtb: 6.7.1 (edcfbbe)
N           -0.88886759073153       -0.51883387195449       -0.13400698766884
H           -0.06864826424970       -0.79115213330413       -0.66224803989330
H           -0.89986037992197       -1.07386712862963        0.71759085163290
H           -1.83108233337345        1.08438116429006        0.44918189702916
C           -2.10871533658148       -0.77176956935375       -0.90233452337551
H           -1.95394576681892       -0.34737998630131       -1.90302516778748
C           -2.49693011640835       -2.24159093969924       -1.03516342174914
C           -3.22273308412151        0.03895664582441       -0.26047402993590
H           -2.58463466497453       -2.69572606326425       -0.05000337499698
H           -3.46093791913647       -2.30817682909423       -1.52777841950573
H           -1.75102612995946       -2.78498253355019       -1.61150633333287
O           -2.80779979429307        1.11932981075638        0.43545002530061
N           -4.41773197519788       -0.31279983375848       -0.41229145451520
H           -6.89615570635555        0.07854382733321        2.08352789676821
C           -5.49761336497681        0.47568802613356        0.12714980140682
H           -5.24154524164311        0.85655108235233        1.12960495027267
C           -5.78885819188581        1.66060155883601       -0.81315398308727
C           -6.72156409876336       -0.40489834983503        0.19906469801028
H           -4.88409092829070        2.26708046403562       -0.88439337464401
H           -5.99835638257564        1.22874046386972       -1.79260184598970
C           -6.96518474464152        2.53987906216843       -0.37765719690609
O           -7.37249458607758       -0.44022677836109        1.42402711473099
H           -7.82877261334672        1.90022865445887       -0.16346953714729
C           -6.63184046662932        3.36056226970535        0.86711743697985
C           -7.34740726709838        3.47346745514165       -1.52464801645277
H           -5.77821834335559        4.00665234609647        0.67294483600031
H           -7.47844891448727        3.98460119497203        1.14444781586875
H           -6.39001558609670        2.72738089712729        1.71790286275876
H           -7.64891597291380        2.89992853680459       -2.39729392296368
H           -8.17587588276243        4.11486679932323       -1.23370536661628
H           -6.50349322972758        4.10324164348171       -1.79843999272293
N           -7.09150387939593       -1.03029225893340       -0.81431675851474
H           -9.05559699502135       -0.42540972330945        0.75397817875181
C           -8.21229702532202       -1.92384327811538       -0.93541420686251
H           -8.10769099174203       -2.38755071209605       -1.92309463416079
C           -8.26717771811574       -3.02545617310335        0.13223710840807
C           -9.55499037988061       -1.17658699073660       -0.94338729839576
H           -8.43269548807963       -2.61262680397951        1.12499723190040
H           -9.07276417913458       -3.71716796593805       -0.10165764654100
H           -7.32388374811743       -3.56681926257760        0.13554575284456
O           -9.79292671480936       -0.40073574443824        0.11492852975004
O          -10.35289925938139       -1.29481463644944       -1.82869629336335
