42
 energy: -62.486132288242 gnorm: 0.000623250350 xtb: 6.7.1 (edcfbbe)
N           -1.83529980439995       -2.16753961770625        0.27519812704740
H           -0.88512164255890       -2.44605937849374        0.06050412294964
H           -2.44058251151797       -2.95159107282867        0.04473916987530
H           -2.92465544968458       -1.35378817752641        1.65479743414323
C           -2.22632363476445       -1.00354833471314       -0.52156479006544
H           -1.42944290823522       -0.25561312268890       -0.41456200188965
C           -2.46007254478810       -1.29043271541389       -2.00228537790906
C           -3.47359055913252       -0.42156817338831        0.11970139392927
H           -3.24191811017306       -2.03785151102133       -2.11587350426378
H           -2.79130518034848       -0.38258928760444       -2.49357653492402
H           -1.54600886351863       -1.64942694836633       -2.47162009196951
O           -3.64871432811800       -0.74011276329955        1.41982500566010
N           -4.24765793173960        0.30402248318963       -0.55164515152358
H           -7.20287494826694        0.69430350337014        1.71379636167692
C           -5.42331639118915        0.86425921115665        0.07129816875680
H           -5.20606903407358        1.17384471772761        1.10646420226132
C           -5.85052873418189        2.07036041763675       -0.78426628754942
C           -6.52606584283021       -0.16613479132594        0.09853977437567
H           -4.98862101863030        2.73545530843800       -0.86134927121742
H           -6.05832124664315        1.68078529818493       -1.78136763860559
C           -7.05982984717470        2.85871471262971       -0.27206794464173
O           -7.45652773772717       -0.01803917419122        1.11443065093239
H           -7.89419898472628        2.17158877328166       -0.09308259201628
C           -6.74260418993132        3.61219492803066        1.01992004920765
C           -7.50619843102833        3.85079269958759       -1.34510632351941
H           -5.95363616416417        4.33989911077735        0.84229314958953
H           -7.62330971013035        4.14384917133699        1.37371044350035
H           -6.41028718078058        2.94664629055467        1.81455565985952
H           -7.78849666416703        3.32721948914356       -2.25480309930482
H           -8.36313118144585        4.42482236023887       -1.00015641294479
H           -6.70067615905905        4.54260417897963       -1.58118644962381
N           -6.56500941908786       -1.06533526418368       -0.76604387340220
H           -8.90449427985983       -0.41525722940380        0.10965423163214
C           -7.52785288515155       -2.12879268321104       -0.88017456441482
H           -7.13643667802977       -2.78950552995414       -1.66270307170062
C           -7.73223443874047       -2.94018291551448        0.40718025461231
C           -8.89867772148446       -1.63808622379789       -1.37170340024089
H           -8.19493365570346       -2.34055779340823        1.18800090834310
H           -8.36652323148130       -3.79791044957619        0.19762290078983
H           -6.76819666966798       -3.29151300898297        0.76871635146291
O           -9.46460463713567       -0.67397641843412       -0.64664092657828
O           -9.44184070921404       -2.10797607861940       -2.33023392281333
