42
 energy: -62.486133509636 gnorm: 0.000480307624 xtb: 6.7.1 (edcfbbe)
N           -1.48345476327015       -1.14349900520638        1.10472799576600
H           -0.53042990495663       -1.44630884737826        0.94402660452210
H           -1.95910517172629       -1.88619313151670        1.61025977922876
H           -2.49257249082884        0.37947308814090        1.74718245043257
C           -2.17227915979598       -0.88823289888025       -0.15939025736543
H           -1.51198884778490       -0.25384033748752       -0.76559894794179
C           -2.53639030337884       -2.14116699725345       -0.95285757231234
C           -3.40445431847234       -0.05753180677542        0.16820908871505
H           -3.19148379378815       -2.77926154439589       -0.36363531950200
H           -3.06204758254445       -1.85781559694236       -1.85804808026294
H           -1.63946327192287       -2.69821663377053       -1.21670189859328
O           -3.32746567927659        0.64200867658184        1.31079507487364
N           -4.38565803272337       -0.05913907882650       -0.61892832062587
H           -6.08157528181947       -0.20569606100095       -2.45379823198195
C           -5.56892231334491        0.72954375138271       -0.32922671957882
H           -5.63208718552462        0.98557211255076        0.73435171614002
C           -5.56762516488176        2.00972725924062       -1.17721146264730
C           -6.71971623098495       -0.18607576286806       -0.67178865397285
H           -4.79525263033912        2.67116098203817       -0.77921742899154
H           -5.27979506043660        1.75997047557678       -2.20335370980590
C           -6.91436638046498        2.74189223273816       -1.19090283475429
O           -6.83853522704412       -0.54895852841322       -1.96093519679916
H           -7.67893449074678        2.06938307243389       -1.59647616956927
C           -7.34132575215395        3.16245512671752        0.21302214203787
C           -6.81581722492826        3.96446096547330       -2.10218102054086
H           -6.56091213431124        3.75457987266352        0.68620750476782
H           -8.24585248711480        3.76409106691382        0.16347810179023
H           -7.54694380629751        2.29422878142591        0.83309954095477
H           -6.52611475996471        3.67626371512243       -3.11054989078845
H           -7.77353817328230        4.47606819064034       -2.15590869752425
H           -6.07530130711171        4.66303305955265       -1.71831194789365
N           -7.43511284228485       -0.64895424811525        0.25557766816423
H           -8.04696403450013       -0.55211918946969        1.95546266325034
C           -8.49866924187774       -1.59605519418119       -0.00114195909467
H           -9.10261962048897       -1.30599904542077       -0.86979901189210
C           -7.95307774349630       -3.01023629923955       -0.22835059422649
C           -9.39924275793869       -1.61674544513962        1.24290725957242
H           -7.31317101465844       -3.29778310977392        0.60361032096793
H           -8.78326143995084       -3.70750939227654       -0.29727247450128
H           -7.37463430345625       -3.04101672795515       -1.14805042037026
O           -8.89425864697539       -0.94600421238575        2.27152840797103
O          -10.44577067835320       -2.20157914968130        1.28412554365081
