42
 energy: -62.486133517357 gnorm: 0.000479417747 xtb: 6.7.1 (edcfbbe)
N           -1.34525291932859       -0.93948267420281       -0.78017085521896
H           -0.68618890153081       -1.70624075571807       -0.83893081448947
H           -0.90315595872607       -0.19741165370198       -0.24434205992801
H           -2.51188017985038        0.04082571120649       -1.92571354840152
C           -2.57912390730447       -1.35926060695974       -0.11528996925315
H           -2.88399618118801       -2.31221106063410       -0.56684491832698
C           -2.46645524267043       -1.53229642958417        1.39605791336529
C           -3.65395355031723       -0.34291570289016       -0.48474069602772
H           -2.13738816744677       -0.60290589277909        1.85606321415342
H           -3.44003012310808       -1.78632485484650        1.80042129111128
H           -1.75538365671363       -2.31982709714448        1.63725943137686
O           -3.41419423466011        0.30319510354521       -1.64827505236955
N           -4.66022531067948       -0.23032186263910        0.25422289398361
H           -6.13258983523407        0.26877539266788       -2.32370550111102
C           -5.77604486548539        0.66916233901876        0.04828336344553
H           -6.12765807270122        0.88216161912559        1.06435759146923
C           -5.51139693109852        1.99132304824579       -0.68023219436128
C           -6.84019003247332       -0.18969360116233       -0.60450530811177
H           -4.74651050890217        2.53173137708998       -0.11731786684318
H           -5.09800685165768        1.81276923819893       -1.67586690480849
C           -6.76484963957169        2.86786206195447       -0.80755840987450
O           -6.83631192689435       -0.27838105949610       -1.94948382847572
H           -7.56493343645788        2.28109660944911       -1.27388645052969
C           -7.26064220814132        3.35617622198364        0.55144642233672
C           -6.45524784060823        4.06285434006705       -1.70892933398981
H           -6.46681317617635        3.88052546317844        1.07939195127861
H           -8.09399988058229        4.04226391487281        0.41914635187598
H           -7.60236033990024        2.52884056114705        1.16730840682541
H           -6.13309231628670        3.73585641860140       -2.69550689585903
H           -7.33699374382806        4.68750227711663       -1.82909152428657
H           -5.66339239603179        4.66854630965814       -1.27321795413206
N           -7.60303879143978       -0.87003602371148        0.12930289304561
H           -8.32808836215301       -1.20391402492473        1.75473733430529
C           -8.56894822981254       -1.79652883532313       -0.41693793882891
H           -9.12666079759225       -1.35985056389815       -1.25495930075247
C           -7.90440913732208       -3.09518050014315       -0.88790642536890
C           -9.55465244927818       -2.13983411686362        0.71033691082212
H           -7.30080075111414       -3.51272017846961       -0.08454483851617
H           -8.67324133679802       -3.81000534126327       -1.16751252217971
H           -7.26554787860491       -2.89582862711059       -1.74439659685513
O           -9.17040705876258       -1.69647911208501        1.90034967286119
O          -10.56213412453017       -2.76584323131274        0.53011724830776
