42
 energy: -62.486133525648 gnorm: 0.000478486160 xtb: 6.7.1 (edcfbbe)
N           -1.67049345472342       -2.15616859628914        0.76806568445868
H           -1.14311972935583       -2.14946145282974        1.63061226309593
H           -1.13447531677014       -2.65739307943539        0.07117399213988
H           -3.48604525986956       -2.44921797502352        0.90995383648248
C           -2.00493307126843       -0.80482195886280        0.31261801641109
H           -1.58151987815494       -0.04127190927719        0.97339577543379
C           -1.52826798412659       -0.53734663960149       -1.11383294874628
C           -3.52807618104203       -0.66195530173851        0.37221729945473
H           -1.92710788047382       -1.28936922100513       -1.79342527324234
H           -1.87443605274174        0.44223385881464       -1.42915648131051
H           -0.44124758567534       -0.56178912950680       -1.16389337767651
O           -4.18324057744692       -1.77599932807179        0.73277835723830
N           -4.03204138624781        0.46170734977427        0.11550853965301
H           -4.96103742678885       -0.99528826080046       -1.54930136113798
C           -5.45142973902335        0.72851149850629        0.07560235781414
H           -5.76630700429101        1.04311482146704        1.07592874834794
C           -5.65076463223478        1.89872609618670       -0.91008135074335
C           -6.32972202994569       -0.42536237718933       -0.34812015833677
H           -4.91697350822600        2.66149558451056       -0.64555626372606
H           -5.40820687484554        1.54392006068230       -1.91573130075239
C           -7.05435265927460        2.50987066788938       -0.91909722864705
O           -5.86916792335966       -1.23515049085327       -1.32257649059096
H           -7.78492444075357        1.71257366065198       -1.08723240027823
C           -7.38329935289620        3.19771816724128        0.40295323552982
C           -7.16177848151492        3.51253084624459       -2.06753454791086
H           -6.65568466027909        3.97840504836256        0.61566607149547
H           -8.36979143697000        3.65161462886399        0.35131091976297
H           -7.38387234312974        2.48912256229105        1.22639266698178
H           -6.96794105980363        3.03047760072324       -3.02312007176153
H           -8.15897520049290        3.94394015560299       -2.10034170316779
H           -6.44269700855626        4.31864121194253       -1.93668234133164
N           -7.51755301549925       -0.46570161345964        0.07146089778428
H           -8.91993197969523        0.35382776353883        0.87720329562656
C           -8.45416302819514       -1.45877685486447       -0.40374382070142
H           -8.38622241953863       -1.59681944907685       -1.49099582741081
C           -8.23536745623189       -2.81246975717306        0.27995836709652
C           -9.86261223410824       -0.95570654486202       -0.05724985086042
H           -8.26783078430464       -2.69088331346785        1.36074043158399
H           -9.01766132274777       -3.50104011639244       -0.02664792547215
H           -7.26465091996740       -3.21320024442683       -0.00069840723781
O           -9.86500297665143        0.11382153400077        0.72975585235105
O          -10.86326497019784       -1.48908541367149       -0.44934204329345
