42
 energy: -62.486133513108 gnorm: 0.000479787141 xtb: 6.7.1 (edcfbbe)
N           -1.71455110753123       -0.95385818227318        1.23756320565552
H           -0.78438688296717       -1.32885027792511        1.09566629796185
H           -2.18002481258647       -1.54545904635119        1.92100996342174
H           -2.64135107728299        0.69738785963432        1.59643594396987
C           -2.47527985683656       -0.95561536194264       -0.01154779990937
H           -1.83256016916724       -0.51554636972349       -0.78523098864792
C           -2.94804246697263       -2.33323107653975       -0.46975807320138
C           -3.64936173250892       -0.00784855115888        0.18159626373866
H           -3.55857223619905       -2.79357407750593        0.30416488755833
H           -3.55524990482025       -2.22600128802396       -1.36176091929879
H           -2.09753842277557       -2.97763050459531       -0.68336285483910
O           -3.48527813690089        0.90995791141004        1.14953524462376
N           -4.66745536351187       -0.12124052639079       -0.54689023940193
H           -7.26647087683258        0.61689592427300       -2.36923214776555
C           -5.79704479354939        0.77535222820384       -0.37561867414144
H           -5.84206061302437        1.13234013495875        0.66212703763896
C           -5.66371908061081        1.97595372473871       -1.31803493536901
C           -7.01274656324735       -0.09934065234142       -0.61274823756368
H           -4.71227820514620        2.46027897923786       -1.08647666543026
H           -5.58429583178317        1.61887057458441       -2.35100088961740
C           -6.79119373642937        3.01063786785102       -1.18833115450062
O           -7.67492671343006       -0.03112354033407       -1.78137331697827
H           -7.76317048235772        2.50402926328334       -1.20646804820129
C           -6.68656758895129        3.77983891060722        0.12667219202577
C           -6.73136753938076        3.98367641609507       -2.36586131645100
H           -5.72784384197070        4.28956332642374        0.19280270820983
H           -7.47671296689925        4.52440942737548        0.18967829756666
H           -6.78193014822478        3.11392284588574        0.97998955799644
H           -6.84458693773799        3.46299410544665       -3.31507518137565
H           -7.52486460292446        4.72282257547512       -2.28792082029353
H           -5.77714128793174        4.50615141273102       -2.37424690481579
N           -7.30278647082145       -0.92940407029254        0.28940480241183
H           -7.08166974468356       -1.51412292371187        1.96137030261089
C           -8.37421274790334       -1.88895018924019        0.15453232511741
H           -9.30518245752995       -1.41582025061463       -0.18218741750837
C           -8.01435378686726       -3.02045275792460       -0.81492693984054
C           -8.60295762046986       -2.49888459165925        1.54679791305724
H           -7.05644840791592       -3.45422487076797       -0.53519888143370
H           -8.78224322030742       -3.78763405646276       -0.76971980351966
H           -7.94469952425130       -2.63456768885367       -1.82821561886617
O           -7.68081491367128       -2.14337141105842        2.43315388616153
O           -9.51224837848337       -3.24035704033328        1.79762210882916
