42
 energy: -62.486133508046 gnorm: 0.000480849218 xtb: 6.7.1 (edcfbbe)
N           -0.91753464760824       -1.03550398309578        0.42325897937434
H            0.05036037369952       -0.93240797985317        0.14476403737378
H           -1.09315476556761       -2.02845162519662        0.55057366002896
H           -2.13522440630969       -0.25207518253200        1.67751741881653
C           -1.81793000485519       -0.49345105778329       -0.59443269783343
H           -1.40236614897273        0.46817256220168       -0.92166775941595
C           -2.02689016928807       -1.39031138506839       -1.81246953272411
C           -3.13804996698798       -0.17270832222195        0.09198495298210
H           -2.37660844558564       -2.37326842127641       -1.50178476075357
H           -2.77840967618352       -0.94755910666665       -2.45749082962994
H           -1.09693783841611       -1.50645476359522       -2.36474395178202
O           -3.06613157711298       -0.06860229238474        1.43599619263752
N           -4.17633994195290       -0.01591250488525       -0.59834927286389
H           -5.01505914255297       -1.89726271602731        0.59286031779230
C           -5.43716481057279        0.37703294902517       -0.00242806016834
H           -5.32481158318332        0.57549322556150        1.07643405105215
C           -5.93927284028332        1.63514445077595       -0.71765468486686
C           -6.38928494595601       -0.79091014219475       -0.14265420816077
H           -5.09260012071049        2.31413629321489       -0.83733584768879
H           -6.27267265153286        1.34005674723156       -1.71226293931545
C           -7.06778697017669        2.35749793083881        0.02733899690313
O           -5.93546581626113       -1.97931678184323        0.31134956007225
H           -7.77818624739532        1.60908829761692        0.38953036451700
C           -6.52814913862731        3.14226013122582        1.22191998842426
C           -7.79543972967763        3.30384946426983       -0.92584294476040
H           -5.84371421765940        3.91896983883875        0.88615129539551
H           -7.34393217989987        3.61652071085971        1.76255536233508
H           -5.99654694754189        2.49512021998923        1.91521576220467
H           -8.24138203584263        2.75834042952110       -1.75362682422400
H           -8.58670878096834        3.83484264462780       -0.40217613937670
H           -7.10186188468428        4.03777329728171       -1.33111591858830
N           -7.53366099554496       -0.63349152390521       -0.63726980821469
H           -8.66254843752789        0.37217507446776       -1.62663614889942
C           -8.47358821463617       -1.72040562215158       -0.77997706035510
H           -7.99163405191123       -2.63419415992852       -1.14966557162689
C           -9.18078144325169       -2.03436839986641        0.54319059014204
C           -9.53176871781041       -1.26757627927973       -1.79878231690983
H           -9.63752605744818       -1.13150341050730        0.94419978546972
H           -9.95456289305241       -2.77668166780766        0.36864973243255
H           -8.46428231136521       -2.42036394380347        1.26396654693907
O           -9.44433226585832        0.01842330660721       -2.11435566392707
O          -10.36624861551938       -2.00414215549399       -2.24579963557499
