42
 energy: -62.486133510377 gnorm: 0.000480167253 xtb: 6.7.1 (edcfbbe)
N           -1.35725497889519       -1.50311592910787        0.36152351508908
H           -0.78587489696954       -0.71805630286816        0.65690062123306
H           -0.73644727376478       -2.22902431825236        0.02316281507203
H           -2.91577547608372       -1.36988411738679        1.51116693868807
C           -2.29355843395286       -1.09518820282744       -0.68628169540917
H           -1.86835449727720       -0.39523266018354       -1.41764934811883
C           -2.82364094652532       -2.32614497123955       -1.42286660285087
C           -3.46828012430940       -0.42122673094802       -0.00708539367412
H           -3.23474942102268       -3.03861805402755       -0.71051165318007
H           -3.60658681292659       -2.02178543451031       -2.11080726705154
H           -2.02448257967685       -2.80933726272658       -1.98091749524866
O           -3.67481744325210       -0.79847996536746        1.27401938491834
N           -4.18982393145743        0.38120967354241       -0.64926487456725
H           -6.45239970056951        0.04538038197051        1.98374113659954
C           -5.35302648404993        0.95396870289713       -0.00426772936610
H           -5.10542279820732        1.26774628509387        1.02161367810452
C           -5.81603240705256        2.15028813999918       -0.84456401670379
C           -6.44740865773043       -0.08787898598847        0.04051986840147
H           -4.99689919786967        2.86886498095751       -0.89826801376903
H           -5.99685231843514        1.76347519757147       -1.84707337135507
C           -7.08115391951256        2.83555264844817       -0.31939448223456
O           -6.98004106495545       -0.36257244998780        1.28635152373401
H           -7.85724403089185        2.07657230997851       -0.16866323693755
C           -6.83251546561977        3.55721059556657        1.00431168821369
C           -7.59064550381870        3.82870554508156       -1.36163150457464
H           -6.04633272689040        4.30019414510922        0.88616583005697
H           -7.73703583678018        4.06507897896579        1.33115761322783
H           -6.53557377772912        2.86739689143741        1.79103137976393
H           -7.81454024145411        3.31875483683365       -2.29485287070328
H           -8.49736186704549        4.31671343721395       -1.01195059815289
H           -6.84089519959587        4.59269624281408       -1.55607899764001
N           -6.79282351756012       -0.65569981421134       -1.01704477230824
H           -8.69567201240390       -0.50231716264651        0.72572603391438
C           -7.78212417759422       -1.68891172131351       -1.17073959607508
H           -7.69160853726098       -2.02264943748603       -2.21101284826090
C           -7.59579151691612       -2.89491994899752       -0.23929438088041
C           -9.21468314658632       -1.15735093174976       -1.00682447215752
H           -7.73263578720050       -2.61925834546152        0.80402939486926
H           -8.31635542767784       -3.66655578177258       -0.49870904688177
H           -6.59088204719208       -3.29237862867954       -0.36356242028718
O           -9.47581347559828       -0.53199832574306        0.14091207299030
O          -10.05677358462549       -1.31324959731172       -1.84408170721347
