42
 energy: -62.486133504036 gnorm: 0.000480938968 xtb: 6.7.1 (edcfbbe)
N           -1.57725400129343       -0.64210280876554       -2.09616788182412
H           -0.86477836954353       -1.28040664680493       -2.42697281592401
H           -1.12842818335307        0.25021948839506       -1.90941200639920
H           -3.31300444558356       -0.02855128324477       -2.57297707724422
C           -2.21502153010388       -1.14366655138633       -0.88076376730564
H           -2.41430952924007       -2.21232777316687       -1.03093023754859
C           -1.38904280188500       -0.95752246257111        0.39061870024642
C           -3.57417916208506       -0.45719498826557       -0.76780840329440
H           -1.15812489737916        0.09629740893891        0.53401615304389
H           -1.95736724988018       -1.30119665887798        1.24810970919768
H           -0.45857584453426       -1.51806376151608        0.32584986206851
O           -4.01600267237971        0.09681482602846       -1.90072363701966
N           -4.17544561762195       -0.49128147680917        0.33864980995520
H           -5.37482983944470       -2.24239844565542        0.88998206872117
C           -5.49562394754754        0.08776376022637        0.54403928808994
H           -5.59498851393782        0.15592016302026        1.63795534538915
C           -5.72243523980437        1.47141034867327       -0.06966872746848
C           -6.49773752001449       -0.94423727135585        0.07304724063447
H           -4.81133371781770        2.05787733648205        0.07072138329387
H           -5.88538175924595        1.35269030485181       -1.14015362387280
C           -6.90683208432927        2.22082821800865        0.55259043860040
O           -6.23965672403953       -2.21332224401754        0.45395005802599
H           -7.73800672812487        1.51894866016773        0.66640482416960
C           -6.55057262286115        2.79009186951170        1.92476439949342
C           -7.34581745170775        3.35215653199579       -0.37561673632650
H           -5.73957038436839        3.51051291526731        1.83654580776000
H           -7.41016059980774        3.29610269606086        2.35830271063550
H           -6.23913323264415        2.00777806180545        2.61259381483705
H           -7.66010967022479        2.96459173737851       -1.34145279159645
H           -8.17871139190605        3.89947992504387        0.05945714027692
H           -6.52540489385973        4.04911900684499       -0.53489926054777
N           -7.47861144492066       -0.61330345913557       -0.63912760223363
H           -8.23373270223917        0.60156251453070       -1.73195941718411
C           -8.43925110187639       -1.57059415269561       -1.13408777061093
H           -7.95783082080396       -2.49073418668183       -1.48918068498590
C           -9.47554924871897       -1.93519600044571       -0.06568835871212
C           -9.16860657876888       -0.90217239087140       -2.31059282073600
H           -9.93537055136678       -1.03154037003831        0.32967450555774
H          -10.24461770369029       -2.56008478703065       -0.51085456850873
H           -8.99542326933806       -2.47450684645753        0.74706867203719
O           -8.89663458349970        0.39065978854463       -2.43324298653019
O           -9.92272262356137       -1.49244675788762       -3.03312561737092
