42
 energy: -62.486133519160 gnorm: 0.000479233078 xtb: 6.7.1 (edcfbbe)
N           -1.02461187941427       -1.02320927019260        0.74485694750678
H           -0.03947404364175       -1.07646264939906        0.51838322192650
H           -1.32046427740441       -1.94840775224778        1.04386592465300
H           -2.23824576342323        0.07654921359814        1.75540079098784
C           -1.81021772393852       -0.59640869421813       -0.41119228180916
H           -1.29596317276990        0.26514513603566       -0.85655619518998
C           -2.00855655393336       -1.66840539687705       -1.48252624480333
C           -3.14005872223498       -0.07814639211341        0.12041594493260
H           -2.50236373423117       -2.54129553360562       -1.05776684646931
H           -2.62365876551580       -1.27211750533943       -2.28389596160973
H           -1.04823326111140       -1.97555614610969       -1.89166570562698
O           -3.12684431057281        0.29403267632895        1.40712895807755
N           -4.12812895239736        0.01131384806557       -0.65671371995669
H           -4.95959952407939       -1.63840164437738       -1.04074456285496
C           -5.41597777804767        0.48834360047259       -0.18940129455080
H           -5.39234426680478        0.76171295786368        0.87301114088283
C           -5.74316499629637        1.72937676757023       -1.04040583742302
C           -6.40571251170854       -0.64912011512325       -0.36522114057623
H           -4.95073371909584        2.45649630145100       -0.84419011723969
H           -5.66707747203172        1.43549624185294       -2.08959163614659
C           -7.09991526582659        2.39461095961365       -0.80263911177739
O           -5.88949547786811       -1.81339219775673       -0.79639840255143
H           -7.88294531342228        1.70466388734342       -1.12407336470707
C           -7.31830909361037        2.74416678676425        0.66669021537756
C           -7.19404226633636        3.65554534664909       -1.66107846290042
H           -6.52015146723258        3.39079617485173        1.02628892403136
H           -8.26360268344642        3.26721434121807        0.78967619792370
H           -7.34196664977150        1.84717991730363        1.27922926540574
H           -7.03726314508265        3.42039362049303       -2.71115273486935
H           -8.17600467574114        4.10961290575081       -1.55560991791658
H           -6.44470293398257        4.38350048968124       -1.35625043807493
N           -7.63857697554393       -0.46242422952767       -0.17856932976799
H           -9.09343618187759        0.60113945082600        0.25523652417622
C           -8.59227042866796       -1.53255339052083       -0.37465530793713
H           -8.42521827424780       -2.05456571415012       -1.32540498734800
C           -8.54656598481523       -2.55868451193826        0.76441122681124
C           -9.99275793305388       -0.90695739096794       -0.38600057203351
H           -8.67698520729310       -2.05737657157342        1.72175205697500
H           -9.34625517629200       -3.28145387740795        0.62899300852453
H           -7.58914596666245       -3.07321180230677        0.76004170184428
O          -10.02347395856202        0.34038346005979        0.06873452938464
O          -10.97167477145748       -1.50154914042151       -0.74347737372655
