42
 energy: -62.486133512485 gnorm: 0.000480131291 xtb: 6.7.1 (edcfbbe)
N           -0.70861189223754       -0.82550168070960       -0.65151202973259
H           -0.21422642831017       -1.63657048337848       -1.00249778385097
H           -0.31603187187685       -0.59427002456298        0.25676818032598
H           -1.19168195217156        0.93568880613109       -1.09806819136118
C           -2.14104990007324       -1.08554405838061       -0.52601290574148
H           -2.44767770372721       -1.65195100380922       -1.41505418853736
C           -2.50200882275762       -1.86701838740356        0.74094229398335
C           -2.87513029455170        0.27987118460818       -0.56468978714844
H           -2.18145332634628       -1.31092731667439        1.62090256864122
H           -3.57203919428094       -2.03488000226033        0.81965548648004
H           -2.00466049718114       -2.83567452290096        0.73949896316463
O           -2.07873372200020        1.30968007115252       -0.91794483316221
N           -4.06384669021234        0.44357663925099       -0.28716805011681
H           -4.58515265179270       -1.35558876159717       -0.87329986766414
C           -5.42493230709541        0.61567435366099       -0.00449557375038
H           -5.53330030882535        0.56695071750620        1.08784839555371
C           -5.86898002959667        2.01591017974833       -0.49003980234548
C           -6.24087512145778       -0.53483974805084       -0.59040089630264
H           -5.17102678183162        2.71841081043317       -0.02892790489684
H           -5.70484480676984        2.05684995381912       -1.56831437464298
C           -7.30052890698044        2.46671471272257       -0.18883672394717
O           -5.52272332182964       -1.60144152855586       -0.98424062107785
H           -7.97906781370759        1.93278870736698       -0.85676501776880
C           -7.70742208937601        2.19127619495945        1.25592945208475
C           -7.42209749853217        3.96052792285308       -0.49095407656961
H           -7.00513864814838        2.65616430965012        1.94524888038451
H           -8.69542627689269        2.60274244261561        1.44931756259961
H           -7.73974054124695        1.12291184254559        1.45353100512381
H           -7.11666806014516        4.17137794324900       -1.51285899752790
H           -8.45095841264382        4.28919053624539       -0.36670594325309
H           -6.79259376326690        4.53959579044150        0.18173575410427
N           -7.49070318342088       -0.45109361536559       -0.71822724308096
H           -9.15898369195632        0.36608032682005       -0.42959036592729
C           -8.25042304889659       -1.54585056192226       -1.28553333089984
H           -7.80839695003731       -1.90114695126266       -2.22433045545186
C           -8.36441279730925       -2.72862013429041       -0.31439912246280
C           -9.67123741381496       -1.03762821478939       -1.55590232168365
H           -8.77491399262787       -2.39193735073732        0.63596078814377
H           -9.02307967725245       -3.48061887652202       -0.73952907557429
H           -7.38341458151455       -3.16442297298050       -0.14395030987428
O           -9.97440222485741        0.07148715791492       -0.89132704578222
O          -10.44759788276308       -1.61129964851952       -2.26762990466386
