42
 energy: -62.486133524901 gnorm: 0.000478491531 xtb: 6.7.1 (edcfbbe)
N           -2.33232991689150       -0.99651106182439        1.91308439772917
H           -1.94545543082905       -0.13168862689150        2.27420514516815
H           -1.60202766169017       -1.69845979549079        1.92626194391679
H           -4.18909707330271       -0.95788702324583        2.39882286305138
C           -2.85487508292014       -0.81108751499360        0.56109450551066
H           -2.23636054341433       -0.16269033639953       -0.07398621932130
C           -3.02367273655772       -2.17213181175246       -0.11737388138931
C           -4.23512163737038       -0.19085945817804        0.69082541191831
H           -3.62252056467902       -2.83141195242244        0.50706798659345
H           -3.52194549993018       -2.04176567208425       -1.07297735360232
H           -2.05259448889811       -2.63329648818048       -0.28542541418229
O           -4.85493304450698       -0.48761947002435        1.84959585110210
N           -4.65767720221810        0.55475466789428       -0.22563646158234
H           -8.34542585802237        1.39067997833329       -0.70251438812799
C           -5.99916461149666        1.06909379656539       -0.30822216718486
H           -6.16258593268824        1.78002985012858        0.52119677674010
C           -6.13282513713331        1.81177329435501       -1.65694684383298
C           -7.09399735857198        0.03235363177551       -0.15080510819017
H           -5.15121356315921        1.77388700862298       -2.12998509779265
H           -6.82321682593865        1.27331981691213       -2.31140220703930
C           -6.56953087638227        3.27772066471656       -1.53301522063676
O           -8.34837416517033        0.46423241806895       -0.43161833152041
H           -7.43092851031679        3.35216903879176       -0.85400337706483
C           -5.43837052096448        4.12903832017435       -0.96179778504454
C           -6.99366074836814        3.81425617814562       -2.89896525324068
H           -4.59554071316658        4.13763125477702       -1.64862822668262
H           -5.77012938737001        5.15360066200552       -0.80883475092022
H           -5.09399712656856        3.73295148309584       -0.00989870806575
H           -7.83889322651034        3.25432149313218       -3.29431222677935
H           -7.28208644744430        4.86014029322641       -2.82454837719111
H           -6.17057455802752        3.73504440089886       -3.60516894942790
N           -6.85564742422738       -1.13539585285992        0.24235037350714
H           -5.86722873711279       -2.13031931085133        1.44500422481103
C           -7.89788662069695       -2.12663256876217        0.37923702337932
H           -8.77005881169350       -1.71949587892561        0.91050449346499
C           -8.35770132307400       -2.66847226808625       -0.97635035204051
C           -7.33233385639724       -3.27929711737783        1.22304665662602
H           -7.49359352577032       -2.97746314959701       -1.56092776708494
H           -9.00230696732301       -3.52755899796470       -0.81286978675005
H           -8.90260442291353       -1.90316372768400       -1.52272819180063
O           -6.12705371595284       -3.04303213085316        1.72295360063156
O           -7.93064939257258       -4.30278372348467        1.41262593369575
