42
 energy: -62.486133062905 gnorm: 0.000561896356 xtb: 6.7.1 (edcfbbe)
N           -2.19169917173630       -1.89792154054566        1.32568314902675
H           -1.96430539283788       -1.32217911829648        2.13003068707041
H           -1.40240782680092       -2.50643449802497        1.14341644046570
H           -4.11706608565981       -2.02736099156684        1.45618998972942
C           -2.48858516112388       -1.06706351819881        0.16139779524887
H           -1.81602984745528       -0.20646140789705        0.04092206253628
C           -2.44277864988986       -1.92167659143612       -1.10649945419816
C           -3.90952738024560       -0.54827323112286        0.33110597876644
H           -3.12577159345640       -2.76406952514086       -1.01500481193727
H           -2.73376256026229       -1.32033948741914       -1.96255292910500
H           -1.43710085873047       -2.30295243271020       -1.27111648459147
O           -4.69451527478717       -1.32576255121010        1.08766665144998
N           -4.22071974966164        0.52908985873733       -0.23559679326692
H           -6.19702883963780        0.21016244397054       -2.39843109746236
C           -5.55393305412571        1.10305754094402       -0.23641137149506
H           -5.76495051839942        1.47716583669689        0.77326867771042
C           -5.55323426344259        2.26967172155500       -1.23127017772297
C           -6.60501966039778        0.05650982225577       -0.53322660583166
H           -4.83839047384072        3.00669236074743       -0.86246187356654
H           -5.16610356348864        1.92247947420118       -2.19468258362020
C           -6.92039458240121        2.93538324607924       -1.42833360491805
O           -6.77264212994799       -0.31010143381563       -1.82335879138006
H           -7.63885679506546        2.19054139084026       -1.78972204667093
C           -7.45635724786086        3.51545601111963       -0.12156324087005
C           -6.79979708262824        4.03545697204271       -2.48228705673997
H           -6.73276115427930        4.20011399177255        0.31559430476442
H           -8.37758415275696        4.06307680105932       -0.30654298981593
H           -7.67159803840611        2.72791104848453        0.59575307015104
H           -6.43573769496142        3.63390086460935       -3.42581403441559
H           -7.76656464605255        4.49980619371972       -2.66037615856654
H           -6.10682082726453        4.80414179750300       -2.14729228033478
N           -7.21686800408450       -0.48137955946088        0.42369135533713
H           -7.34938700679805       -0.75710881506590        2.20302084219757
C           -8.17574282610933       -1.54740663261800        0.25415215086505
H           -8.99251135671033       -1.24571629531695       -0.41313084294641
C           -7.54698991702108       -2.83925200281037       -0.28157372344639
C           -8.75270381909187       -1.84623551294736        1.64691698863782
H           -6.69630565950477       -3.11400223851077        0.33859777181784
H           -8.28592504562566       -3.63517810626676       -0.25132585149086
H           -7.21054120303734       -2.69547414603794       -1.30474445274931
O           -8.06222984405029       -1.28837271868870        2.63236721432838
O           -9.71494227310223       -2.54192084950890        1.82247927952942
