42
 energy: -62.486133522321 gnorm: 0.000478038642 xtb: 6.7.1 (edcfbbe)
N           -2.63627240073905       -1.69565170811970        1.82325489835713
H           -1.73962371899573       -2.15035853966772        1.94716168458630
H           -3.34654420515488       -2.42480710933711        1.79659566940667
H           -3.75280850711224       -0.27695532644579        2.49254707483085
C           -2.66649769497721       -0.93864947189789        0.57306414974844
H           -1.79238843324712       -0.27249734911298        0.57440675772688
C           -2.64751754394612       -1.78803326851510       -0.69644200638074
C           -3.89552379614036       -0.04844662219749        0.63702950551977
H           -3.42179569327751       -2.54977704314707       -0.64882417463127
H           -2.83732351118639       -1.15317140327253       -1.55491363190899
H           -1.68196217477920       -2.27634881159334       -0.81081767440423
O           -4.30663860511865        0.25180728396916        1.88155636570483
N           -4.45161422142060        0.35984795523173       -0.41640845509026
H           -7.85954590388188        1.91013149072965        0.43858504297555
C           -5.64059026457441        1.17699730244999       -0.31218762354593
H           -5.49333560407310        1.98729240237135        0.41796167035334
C           -5.88740856625282        1.74701675925248       -1.72195948559290
C           -6.79719807784361        0.32876221125549        0.17282722665453
H           -4.94757192773742        2.20459541298064       -2.03647915463603
H           -6.06791889031950        0.89529011437399       -2.37999751116846
C           -7.01806724940729        2.76767989834556       -1.88781665337915
O           -7.94748144001950        0.95159103948209        0.50687680912025
H           -7.97506726780516        2.30501186410693       -1.62089611213183
C           -6.79925790884971        4.01719133400862       -1.03411448328605
C           -7.10647940291012        3.17053687765088       -3.36042379550034
H           -5.85724963309534        4.49037349657522       -1.30292577218270
H           -7.60046202491096        4.73359557019093       -1.20341521012845
H           -6.76948132004892        3.79594316489213        0.03158279420120
H           -7.28728297975419        2.30031447940007       -3.98649978148224
H           -7.91839698499460        3.87782193104126       -3.51374583102494
H           -6.17864210922316        3.63789896191364       -3.68232634303062
N           -6.62797844736716       -0.90889912373366        0.30739285164731
H           -5.43800956400665       -2.15413531995994        0.47156432493416
C           -7.60553160476245       -1.81375341649385        0.85216421110412
H           -8.15879271545724       -1.37306278569368        1.69144122589786
C           -8.60087113382339       -2.28455446955464       -0.21235967101134
C           -6.81034331091910       -3.02839498996267        1.36094375022915
H           -8.06413444646380       -2.67611393402735       -1.07416429489398
H           -9.22953423651064       -3.06695739656225        0.20339135436432
H           -9.22223757156976       -1.45122842964445       -0.53081573319803
O           -5.53311733909208       -3.00092904805466        0.98689163787491
O           -7.28769287399868       -3.90899965136943        2.01922933912333
