42
 energy: -62.486133855290 gnorm: 0.000357356091 xtb: 6.7.1 (edcfbbe)
N           -1.09890418297874       -1.18192439254291       -0.63731304384788
H           -0.80133718457704       -1.81002821543035       -1.37322565493815
H           -0.75511970686454       -1.55654320411028        0.24210164463245
H           -1.03832418275411        0.55986138924907       -0.04891206440007
C           -2.55740196516659       -1.06172191731837       -0.59133236932427
H           -2.91661754073716       -1.09878781906671       -1.62554977295422
C           -3.21095815736097       -2.17472965315927        0.23382120418056
C           -2.90185450795684        0.32786619546702        0.02320861182928
H           -2.81968101087764       -2.15588996606654        1.24940234571427
H           -4.28665984216976       -2.05148731925988        0.28841856652974
H           -2.99789581647257       -3.14655168029892       -0.20749570753381
O           -1.81333389728081        1.06999309581957        0.27363824809400
N           -3.99220988731575        0.75448900365152        0.45013069585726
H           -4.76812729192049       -0.42948155150256       -1.70880758456101
C           -5.38667592179677        0.82864124590451        0.25827425469386
H           -5.81051389076109        0.96789208421944        1.25824755585593
C           -5.67883099539872        2.10264314649847       -0.57284787800211
C           -6.12840665697304       -0.33229251297362       -0.37774770387872
H           -5.04547510327133        2.89214449157238       -0.16607868154158
H           -5.36426510563622        1.92641588590115       -1.60575343459031
C           -7.14130058884652        2.55776809056371       -0.55891009468282
O           -5.57142398911330       -0.90730734113332       -1.46953281896782
H           -7.77529523792802        1.73611948563215       -0.90783852906086
C           -7.59738092318926        2.96420956116287        0.84064656347528
C           -7.30775636051454        3.73586180801092       -1.51903700986153
H           -6.94304863762328        3.73466475974950        1.24235198698470
H           -8.60963676682213        3.35840219659729        0.80019911034776
H           -7.59576927993580        2.11708397111420        1.52033051411450
H           -7.01584576621578        3.45980082100358       -2.53016375431014
H           -8.34533575687888        4.05936377834310       -1.54151202286690
H           -6.69271974624011        4.57450910799309       -1.19995247605622
N           -7.30342889880450       -0.58635124194942       -0.00126636395019
H           -8.82001251982580       -0.02818463083760        0.84604395546926
C           -8.12095225017414       -1.56515574743848       -0.68247228805748
H           -8.01666252728789       -1.48997715836531       -1.77335271145373
C           -7.77518662450296       -2.99476006188723       -0.25605349926956
C           -9.58441442344407       -1.27634857960916       -0.31223527458268
H           -7.79544522037539       -3.07451289242164        0.82909727357425
H           -8.50619219790881       -3.67896307066197       -0.67751890288912
H           -6.78355996207541       -3.26017843160324       -0.61452644239344
O           -9.72552448044519       -0.34170478192360        0.61819244226991
O          -10.50667006490110       -1.85534642539806       -0.81493942617150
