42
 energy: -62.486133509743 gnorm: 0.000479671052 xtb: 6.7.1 (edcfbbe)
N           -2.24964091782939       -1.09621179646923       -1.58248882048639
H           -2.27468866883207       -0.33709402992309       -2.25568697482516
H           -2.23075910700117       -1.96911460504939       -2.09779244324323
H           -1.38056897566372       -0.35991349413552       -0.01965740084264
C           -3.41797629283784       -1.04215841390502       -0.70000762623039
H           -4.36134165541996       -0.87749546315671       -1.23579740514504
C           -3.48407167300547       -2.34199098412341        0.10522105450094
C           -3.16267129831135        0.10125978837173        0.28623003209286
H           -2.55413679186192       -2.48660801296748        0.65207477555602
H           -4.30429890959502       -2.30892144988175        0.81583659695499
H           -3.63374307897197       -3.19305206286363       -0.55614485891298
O           -1.86782696015720        0.22214639297690        0.60002009817735
N           -3.96074040717340        0.89107189492512        0.85211126347194
H           -6.07380518238689       -0.56918450300523        2.30486292683752
C           -5.37573671221280        1.06646763428254        0.67717623056887
H           -5.71601333009167        1.48533187666344        1.63679722746685
C           -5.55875294320043        2.13805724743734       -0.41436209622948
C           -6.21032505558616       -0.17121563294703        0.41997565596256
H           -4.93166910855747        2.98264670869629       -0.12328970551753
H           -5.16778257376345        1.73206253364248       -1.34828278654134
C           -6.99131484948274        2.62585828003447       -0.65370239570911
O           -6.46931662257289       -0.94056378001813        1.50517888786881
H           -7.54649066404562        1.82116503232972       -1.14768089605514
C           -7.70766314744710        3.01393706207783        0.63785780997071
C           -6.95292713087393        3.82152905248034       -1.60537041343072
H           -7.10866564381642        3.72522148873911        1.20237680214722
H           -8.66314901173860        3.48063597784807        0.40875583944731
H           -7.90455518315267        2.14857307951169        1.26623897815999
H           -6.43225730613482        3.56399628092875       -2.52437019341651
H           -7.96151995922264        4.13852896711242       -1.86006002104440
H           -6.43738318473958        4.65903102122267       -1.14094773921423
N           -6.63187401575196       -0.45001652112344       -0.73511623518781
H           -8.70012966533461        0.36661461158967       -0.25802713393978
C           -7.51038986097546       -1.58005152730850       -0.97529443161183
H           -7.88361221355414       -1.43941096818756       -2.00197259784855
C           -6.82893716040934       -2.94199699836531       -0.87996331854653
C           -8.74099423157942       -1.54739436282595       -0.05692221857223
H           -6.47387615539984       -3.11006637622521        0.13230873690309
H           -7.55187469604842       -3.71565315035555       -1.12174720235793
H           -5.99590923392322       -2.99456336082527       -1.57562749165798
O           -9.23580089122750       -0.32075684061360        0.16854413934558
O           -9.26100070307925       -2.52272050457318        0.39768403795370
