42
 energy: -62.486133510200 gnorm: 0.000480190470 xtb: 6.7.1 (edcfbbe)
N           -1.04641730664388       -1.06387437478406        0.22199564239376
H           -0.15622302921404       -1.25026590662138       -0.22405537300059
H           -1.29214432781032       -1.88728689511703        0.76580397161016
H           -1.93789458899703        0.28565799089957        1.24973441972976
C           -2.08658900189175       -0.80466623960817       -0.77516845648861
H           -1.66831690484479       -0.10522753060668       -1.50999174745676
C           -2.60506246305292       -2.04531648965502       -1.49792040511526
C           -3.21970667727102       -0.07139770912128       -0.07224673403215
H           -2.96066369415122       -2.77671688009341       -0.77458614750480
H           -3.43892809543430       -1.76302198578465       -2.13133322732240
H           -1.81914895384080       -2.49552219945314       -2.10098728776539
O           -2.87493284859467        0.51962124463081        1.09346392615148
N           -4.35646856023811       -0.04190129118017       -0.60174552012420
H           -6.79738148999356        0.37325647489096        2.00119657779634
C           -5.44921413797228        0.67499581568859        0.00299992831830
H           -5.16937825970701        1.09335641476944        0.98402872784689
C           -5.86425544613053        1.80383654781037       -0.95786228645283
C           -6.60881669849184       -0.27805249848104        0.16965214236468
H           -5.00410720821057        2.45992573430375       -1.10583554345538
H           -6.09646353288207        1.32278449286265       -1.90824558109538
C           -7.06664305041287        2.62715194838563       -0.48465068137760
O           -7.24362615410888       -0.23870996146770        1.40281220569202
H           -7.87338489491711        1.94579772095516       -0.19222966366359
C           -6.71248014853970        3.51929144563260        0.70445447690795
C           -7.57874747988000        3.48622669707606       -1.63908957201599
H           -5.93321470429464        4.22517271108279        0.42443026741530
H           -7.58531697531459        4.08332595402483        1.02561761739228
H           -6.35483120574021        2.94191186816553        1.55426500429403
H           -7.88989011539124        2.85929778323363       -2.47063008709950
H           -8.43152123644891        4.08138618542340       -1.32111957087108
H           -6.79837847021626        4.16001819859932       -1.98646628123412
N           -6.94418262478210       -1.02301958022265       -0.77236570920292
H           -8.92965795802749       -0.38214994415978        0.75248984766898
C           -8.01028397951542       -1.98842407418367       -0.79272604755720
H           -7.88470250056441       -2.53888834975214       -1.73222992332343
C           -7.99562849693527       -2.98260911966304        0.37687011571098
C           -9.39520938145277       -1.32494075409578       -0.85651190901616
H           -8.17042100673449       -2.48425856075911        1.32797203676355
H           -8.76745330815457       -3.73294029812963        0.22401135135655
H           -7.02642680782011       -3.47456007989105        0.41685915411364
O           -9.67099596484851       -0.46346420368271        0.12310953167087
O          -10.19108156518715       -1.57782594379447       -1.71483402002994
