42
 energy: -62.486133516402 gnorm: 0.000478842738 xtb: 6.7.1 (edcfbbe)
N           -2.31089132748248       -0.96635027215723       -0.44208914027459
H           -2.12065614567756       -0.13862401350949       -0.99722936169501
H           -2.05297495110365       -1.77937892347381       -0.99006473630606
H           -2.20653542574831       -0.42900621118087        1.52603271850917
C           -3.71854702809358       -1.02822111304956       -0.05126814761433
H           -4.41414583450262       -0.90082473925704       -0.89530717181412
C           -3.97499803548838       -2.37228736335858        0.63143239268269
C           -3.92393678132907        0.08291410917268        0.98141769908529
H           -3.29606918266091       -2.50023479478069        1.47169965983580
H           -4.99444052953665       -2.41563850204903        1.00075346750973
H           -3.81126544219295       -3.18897646914835       -0.06983495686936
O           -2.91894623680751        0.14691779266828        1.86171113488675
N           -4.85742594160118        0.91398001271243        1.11852987322692
H           -6.87569462541468        0.80969435109616       -2.03769322877787
C           -5.97613422380338        1.15324319344090        0.25240051007451
H           -6.71963778050858        1.63237507106879        0.90735650572311
C           -5.54324712853938        2.18502556050186       -0.81096944110580
C           -6.68881751434996       -0.06111449304555       -0.32717635752142
H           -4.73924797300467        2.77433158794116       -0.36570345608536
H           -5.10706131298832        1.66763653031784       -1.67310965042431
C           -6.66199481914931        3.14512138263156       -1.25151413869923
O           -7.09926959235190       -0.02876448737460       -1.61391451006578
H           -7.61491732992257        2.60535026819894       -1.32521394952965
C           -6.83911661031769        4.25948593120189       -0.22247626275699
C           -6.33652132248427        3.74418966676178       -2.61978563026364
H           -5.94204071325487        4.87228058411810       -0.17355287638151
H           -7.67717876330992        4.89722117879302       -0.49321971009042
H           -7.02535920416627        3.84986901472920        0.76682231161164
H           -6.26941643078764        2.97542718131174       -3.38846782355882
H           -7.10783037999675        4.45057778483507       -2.91641837036456
H           -5.38677332364115        4.27300914305936       -2.58176751262873
N           -6.95406536076711       -1.02578974073430        0.43863404171855
H           -7.02124830244006       -1.66743961018802        2.14413020608278
C           -7.75423444028154       -2.15908864172036        0.02809330799040
H           -8.75321704401518       -1.81018199512818       -0.27100661544111
C           -7.18426366036024       -2.99564677747760       -1.12020032104632
C           -7.94025994047049       -3.04790189941569        1.27084242371631
H           -6.17091472989559       -3.31421888514405       -0.89136263477839
H           -7.80760942834971       -3.87688437011973       -1.24369943363242
H           -7.18085230600558       -2.42303616412003       -2.04337843155193
O           -7.42896115950566       -2.53268510045412        2.38216927939648
O           -8.49947270738810       -4.10833299267717        1.23338335157451
