42
 energy: -62.486133977933 gnorm: 0.000561523878 xtb: 6.7.1 (edcfbbe)
N           -2.02678662232040       -2.28071118238782       -1.22376846720789
H           -1.04708306392961       -2.53722147503591       -1.24739107309357
H           -2.33191057165629       -2.14091670208848       -2.18295958831245
H           -3.70035628209312       -2.79944460187348       -0.47258764998114
C           -2.22696662661825       -1.05111195390812       -0.45969063717464
H           -1.70017010961288       -1.17393898542927        0.49472021895507
C           -1.72546390037750        0.21253412350389       -1.15324577043187
C           -3.72343337390869       -0.95852068693739       -0.13627505253817
H           -2.22392883816996        0.33424407616249       -2.11228811984282
H           -1.95500427831805        1.07379157472413       -0.53669414509383
H           -0.65049905307313        0.15870179761586       -1.31550131195953
O           -4.34417084518568       -2.14155187769110       -0.13727275840146
N           -4.16717207321384        0.17007893060283        0.18085722882329
H           -7.49124627694459        0.96984360972383        1.73207434976569
C           -5.48911575119929        0.66354738001343        0.41832239465421
H           -5.42835078272184        1.16990681773391        1.39352463816472
C           -5.72430663930273        1.72560212948219       -0.68722325037354
C           -6.68190717769032       -0.26628328798787        0.44113866964295
H           -4.80444015569316        2.30720373919484       -0.76718040302845
H           -5.85720243866622        1.17917464551431       -1.62286003654655
C           -6.90818920884390        2.67628737184299       -0.48153706305412
O           -7.72260736593428        0.15671738648842        1.26776278270983
H           -7.82053909302106        2.09687785910472       -0.30404183991042
C           -6.67759760926143        3.62954947336918        0.69091207068269
C           -7.12507566801608        3.48539616939290       -1.76013888458200
H           -5.80343895215680        4.24849896057518        0.50091832796604
H           -7.53743822438529        4.28330487610573        0.82006670217196
H           -6.51425461684869        3.10130734181754        1.62853438410734
H           -7.34568112828524        2.82686530319939       -2.59648960351987
H           -7.95856832650883        4.17318058087754       -1.63788455246683
H           -6.23470771864623        4.06249598070343       -2.00037982238650
N           -6.70807839418163       -1.32195661300665       -0.21698522101976
H           -9.06059472619012       -0.33931010763559        0.16150672134048
C           -7.75204603367103       -2.30739106629443       -0.27902437012346
H           -7.32490545520562       -3.14123143729850       -0.84767944488790
C           -8.21932325087533       -2.82153497593745        1.08925871383789
C           -8.97158273150885       -1.81073937891971       -1.06817002772226
H           -8.70596761901313       -2.03844360549982        1.66692369325507
H           -8.91730749394159       -3.64322554322437        0.94870403173136
H           -7.35678321275586       -3.17880749347282        1.64716502449380
O           -9.53196217291392       -0.68671720803542       -0.62003836211764
O           -9.41002742254361       -2.39807795639501       -2.01614763026555
