42
 energy: -62.486133519479 gnorm: 0.000479132371 xtb: 6.7.1 (edcfbbe)
N           -0.99703763238709       -1.37674751234534        0.61168319576418
H           -0.91496957774419       -1.07711105446137        1.57782988647097
H           -0.06161451024251       -1.47570515559718        0.23512570398942
H           -2.58844271985417       -2.39260371180809        0.57930550777804
C           -1.77213390977660       -0.41152220532626       -0.16665412470097
H           -1.55991444595918        0.63632608045773        0.08278487080438
C           -1.52391219150155       -0.63197855149155       -1.65926148834043
C           -3.24598948850767       -0.68350555635714        0.11496337278933
H           -1.73870394933913       -1.66444505423052       -1.92772054001254
H           -2.16725117083030        0.02533288040951       -2.23638812163061
H           -0.48693190230434       -0.41548681264213       -1.90704743421859
O           -3.47442997705328       -1.98142639938554        0.46996955924959
N           -4.05479777554952        0.25112256423033       -0.02027104610221
H           -5.12592043961052       -2.06345602975736        0.18142303623365
C           -5.47055730172134        0.46519760299091        0.06912420859525
H           -5.61187189276484        1.06573511088862        0.97606757167473
C           -5.74153330028505        1.37639728878810       -1.15863977978150
C           -6.47622639304594       -0.67938864825381        0.13007481675076
H           -4.91760142921723        2.09273282206882       -1.17251698446934
H           -5.65350522586913        0.75671587593474       -2.05415175922252
C           -7.06180913146826        2.14619655115987       -1.21980217902905
O           -6.09158567688527       -1.95875507818602        0.11036219717235
H           -7.87621776555578        1.43476935981312       -1.36630463541247
C           -7.32107061964527        2.95060221429139        0.05034335068503
C           -7.02846621084371        3.08123455639867       -2.42907469818012
H           -6.49616887402697        3.63443487553897        0.24096679403880
H           -8.23191605534154        3.53426743530647       -0.05772018581864
H           -7.43745754497552        2.29710393140165        0.91074203517753
H           -6.83620390232645        2.52444649038473       -3.34314931312021
H           -7.98203436424178        3.59204736985906       -2.53529886201442
H           -6.24814446855039        3.83078215411002       -2.31270400231489
N           -7.70218850201128       -0.36197742913076        0.13700685823183
H           -9.10031057839321        0.85853257685504        0.22654611889308
C           -8.72803232772290       -1.38372102634796        0.15095792345196
H           -8.55006439414415       -2.14644754959900       -0.61726292263218
C           -8.84217821963178       -2.07743855682408        1.51538089804640
C          -10.07027122681144       -0.69723450103161       -0.12588490270583
H           -8.98750262846917       -1.33568799907500        2.29882007855032
H           -9.69268909610566       -2.75339763948352        1.50317412876649
H           -7.93676710869741       -2.64150756336306        1.72266980135918
O          -10.03611439943720        0.62071791927487        0.03813082600797
O          -11.06565293595824       -1.29717712078589       -0.42466502915640
