42
 energy: -62.486133516632 gnorm: 0.000478849693 xtb: 6.7.1 (edcfbbe)
N           -1.07306183562970       -0.46472292531589       -1.08554865051331
H           -0.42298473955990       -1.02584219950472       -1.62317340602928
H           -0.72049167898138       -0.41767244563195       -0.13269752829652
H           -2.07414699012741        1.18523813696435       -1.25093318134202
C           -2.40587656105788       -1.07017624957210       -1.08768174225418
H           -2.65767977767654       -1.29112812365793       -2.13323236123991
C           -2.53784443526796       -2.34618337452292       -0.26301703596749
C           -3.39504738938014       -0.00033252628831       -0.63594563646770
H           -2.25614669365581       -2.15629462103107        0.77021059166965
H           -3.57268927157490       -2.66821446636243       -0.28255707153276
H           -1.90108676093574       -3.13051570990499       -0.66714703449241
O           -2.98323809990662        1.25901720688680       -0.89717038584847
N           -4.45931968591782       -0.37096471619488       -0.09431129382927
H           -7.68374791922765        0.53056738362598        1.55878796862228
C           -5.57083226575975        0.42184436343207        0.34861702710965
H           -5.46237732887325        0.54919299345785        1.43620572463947
C           -5.71258308909725        1.80056960204755       -0.33682802698181
C           -6.80987973561114       -0.40726012125088        0.08389399085559
H           -4.78356696522880        2.34855364579366       -0.18030286430362
H           -5.80956470019982        1.60973163622027       -1.40782133794142
C           -6.87768767298127        2.68387132633956        0.12379941869597
O           -7.90049988487803       -0.13896695412930        0.89900430686237
H           -7.82461014565114        2.14534086484959        0.00988962244320
C           -6.71465128338307        3.13255739904928        1.57675670363492
C           -6.94969008102868        3.91547756908035       -0.77917666937647
H           -5.80347455994282        3.71759552191325        1.68354415389568
H           -7.55543306075671        3.75461756657713        1.87660044626929
H           -6.65383981171563        2.29518412919925        2.27087718982338
H           -7.10700107007785        3.62155171499927       -1.81388202786871
H           -7.77203356978284        4.56082004821613       -0.47794030435400
H           -6.02471426879935        4.48505294047389       -0.72026524703316
N           -6.79636915320866       -1.28439010693975       -0.80235915394245
H           -9.15660644023205       -0.30524411764597       -0.38480242767657
C           -7.86191715055931       -2.17776513459321       -1.17210420003121
H           -7.41697466300961       -2.87585360422328       -1.89074011052486
C           -8.45526767827253       -2.97508691995698       -0.00188844106454
C           -9.00448292241107       -1.46238002810567       -1.90959812691837
H           -8.95409230765720       -2.32448332109972        0.71303059187241
H           -9.17269018936695       -3.69766509228450       -0.38292501021088
H           -7.65636902064564       -3.50511949718433        0.51153515378026
O           -9.57214577230589       -0.44859359530347       -1.25634615620649
O           -9.38347461488601       -1.80395424275534       -2.99342236459564
