42
 energy: -62.486133502605 gnorm: 0.000481134325 xtb: 6.7.1 (edcfbbe)
N           -0.89641147094929       -0.30542161355220       -0.21078792431819
H           -0.10140534876285       -0.66452727874034       -0.72471536414841
H           -0.77416707019967       -0.56635085536362        0.76376758944630
H           -1.90080283445665        1.32901283699090       -0.03242576388434
C           -2.14812979029400       -0.86158710029572       -0.72304904818642
H           -2.10766407298453       -0.80569707461663       -1.81820057079867
C           -2.42669101153174       -2.30377042989486       -0.30577273975455
C           -3.27085378958302        0.07184654442680       -0.28919574697924
H           -2.42023304209098       -2.38886306272581        0.77956784686301
H           -3.40566617998243       -2.59713923726945       -0.66919384927997
H           -1.67278282171233       -2.97257332121320       -0.71586325186315
O           -2.87764198038063        1.31749018609739        0.02902053468074
N           -4.45234745385710       -0.35484994068908       -0.26524234422469
H           -5.90752035912645       -1.20131628976918        1.71379186793568
C           -5.57417910478000        0.49997329351562        0.08536968373753
H           -5.40697140054611        0.94199842248617        1.07944296284428
C           -5.78697703472008        1.62047082508121       -0.93798302829513
C           -6.75270850014523       -0.44393268851599        0.14803694374180
H           -4.86428480351351        2.19987205527920       -0.99774621461433
H           -5.96894625961950        1.14686277210362       -1.90278203976663
C           -6.95179077135306        2.56114482771423       -0.61548605994372
O           -6.75808650662581       -1.26244842970122        1.26282566390029
H           -7.86795223253076        1.96774990657717       -0.55095295505718
C           -6.74398383856845        3.30371956542020        0.70301181158047
C           -7.10620722905662        3.56499654207941       -1.75682445424003
H           -5.77551387205467        3.80050523542912        0.71207758678403
H           -7.51725072195192        4.05737291660606        0.83295867551372
H           -6.79639014026781        2.62819855250582        1.55339337387433
H           -7.26969356996181        3.04796710957647       -2.69872467476045
H           -7.95394866085780        4.22124278923580       -1.57533285790321
H           -6.21104209477294        4.17725049879046       -1.84870351153982
N           -7.58131129393638       -0.50481510253224       -0.78287369579105
H           -8.55671316565296       -1.22947943866633        1.50184157070289
C           -8.69318043430387       -1.41202055079728       -0.90297708769294
H           -9.08930086283489       -1.25065334989579       -1.91234433910856
C           -8.32367140451691       -2.89290762367565       -0.73971924166944
C           -9.83344594200503       -1.07947423618386        0.07150562361253
H           -7.99338177056014       -3.11286433259543        0.27303514358915
H           -9.18863147072678       -3.50941733350218       -0.97163727482303
H           -7.51750610059899       -3.13817719048290       -1.42737294043656
O           -9.50355756818255       -1.04273083989483        1.36215408878873
O          -10.95724728543717       -0.88868337098726       -0.29695891194159
