42
 energy: -62.486133512719 gnorm: 0.000479587838 xtb: 6.7.1 (edcfbbe)
N           -0.84856632971807       -0.29893096290006        0.32845429081495
H            0.05099510352573       -0.57323869032614       -0.04731794696070
H           -0.94193421015871       -0.73110050059901        1.24394389974232
H           -1.94407261458208        1.26716498412152        0.59865529972938
C           -1.93691493444883       -0.74402968660136       -0.54047061345227
H           -1.67400044226401       -0.44659420906729       -1.56483379903087
C           -2.20544107016206       -2.24723336389196       -0.50476136569615
C           -3.17010856752500        0.06233983922278       -0.15549839581354
H           -2.47308727371257       -2.55555107765594        0.50369322353012
H           -3.03101528243456       -2.49201408865430       -1.16434354487579
H           -1.32068477295102       -2.79621216628273       -0.82135945143220
O           -2.91140307164516        1.22776341829617        0.45474186846210
N           -4.31435227846235       -0.39528893846029       -0.40809572335705
H           -5.43740104677414       -1.12373161065597       -1.91935069221748
C           -5.53365347004531        0.33800477936312       -0.13398028320835
H           -5.64354560410887        0.51882593707314        0.93908633128840
C           -5.59108680746358        1.67931625603712       -0.89217330934916
C           -6.65374312909559       -0.55227386937603       -0.62245893311594
H           -4.76641462653050        2.30194293170910       -0.54336687732547
H           -5.43310900591826        1.47418250089306       -1.95549175339331
C           -6.90852982426395        2.44178624817574       -0.71935781480254
O           -6.39148487347673       -1.22290992653151       -1.75356658818286
H           -7.73669243056256        1.78960633959877       -1.01487807441510
C           -7.12532958392451        2.87657005237022        0.72731515049521
C           -6.90494395603815        3.66437497547063       -1.63637816972777
H           -6.29794048984037        3.49840075180196        1.06337400417612
H           -8.04425668424269        3.45151807890625        0.81020947256477
H           -7.20666052288677        2.01724648080874        1.38674463789135
H           -6.78546991909738        3.36945338316901       -2.67661897956307
H           -7.84050006017940        4.20994755121938       -1.54225506282067
H           -6.08890300689364        4.33413793712537       -1.37255322190879
N           -7.71861033081752       -0.65542692632054        0.04319755654345
H           -8.88889840507235        0.12691540672066        1.18123958305837
C           -8.81357202169653       -1.48947306544078       -0.40368975460100
H           -8.94619833936537       -1.44763398617587       -1.49228096143492
C           -8.60763043217007       -2.94945521673177        0.01314104141738
C          -10.09132459375646       -0.96396088960649        0.26726162384193
H           -8.41728739811994       -3.00571639310139        1.08288655470290
H           -9.50296080130016       -3.51842867166515       -0.22090156688487
H           -7.75936026003941       -3.37067439706185       -0.52051706341575
O           -9.86305782259332       -0.02867774304810        1.18148101816863
O          -11.18704006933625       -1.37296731856499        0.00000940115914
