42
 energy: -62.486133507511 gnorm: 0.000480247848 xtb: 6.7.1 (edcfbbe)
N           -0.82827015848254       -0.22257825053266       -0.99552099425922
H           -0.06875153670394       -0.79949012969418       -1.33577586914317
H           -0.50524595970622        0.24220473107135       -0.15123517017876
H           -2.08315346947244        1.04433300071606       -1.65943917092730
C           -2.00952196076795       -1.02931528720211       -0.69543536845115
H           -2.16760965980622       -1.69739377365550       -1.55357048997661
C           -1.90731120974123       -1.86311465658017        0.57938609709344
C           -3.20546175596032       -0.07490259108937       -0.65984736602464
H           -1.71326828199662       -1.21710577936287        1.43303684404160
H           -2.84331656234681       -2.38274052348956        0.75400539264032
H           -1.10246383597376       -2.59005889303514        0.49353312886591
O           -3.01514748021919        1.05528234793236       -1.35496893568230
N           -4.22145512793271       -0.42577719465353       -0.00861338834562
H           -5.11463265638476       -1.66186777174825       -1.28516753133216
C           -5.50073904888537        0.23424892977379        0.09865661630216
H           -5.70116578714743        0.31080162135501        1.17264079866697
C           -5.60562872517544        1.63247142410922       -0.54170734045459
C           -6.53598433843020       -0.70803735794639       -0.49365423927798
H           -4.80664548810423        2.24615410150737       -0.12106207627242
H           -5.41896844579312        1.53665253786948       -1.61343593562597
C           -6.94124909893044        2.35278126574360       -0.33913181768730
O           -6.08577389330826       -1.66501386950646       -1.32276658031552
H           -7.73743011246248        1.74457381075406       -0.77601410459366
C           -7.25398022568271        2.58434770575299        1.13689566484627
C           -6.90263892275329        3.69037206368109       -1.07779114877041
H           -6.45789035937566        3.15786745623490        1.60809935919495
H           -8.18223396549664        3.14138417084035        1.23744710402081
H           -7.36612758238250        1.64303862012488        1.66786592654776
H           -6.69651054566041        3.54225320636998       -2.13526390655358
H           -7.85799760176598        4.20059095850279       -0.98435258139848
H           -6.12774088833665        4.33281133589882       -0.66429957962245
N           -7.75113616274798       -0.56235723396353       -0.19313819770266
H           -9.11582026195507        0.44102275797637        0.52073277969064
C           -8.77515025669205       -1.41818868647685       -0.75162925073594
H           -8.62706553173374       -1.58829564008923       -1.82537547153552
C           -8.82531494796742       -2.77501711005965       -0.03922657948913
C          -10.12497637959652       -0.71777243636768       -0.54208575502246
H           -8.93673457008778       -2.62695505749527        1.03298812081406
H           -9.67254835844298       -3.34413422713440       -0.41093135622082
H           -7.90752598158647       -3.32589778005831       -0.22801756965816
O          -10.06225051346414        0.32783990166928        0.27353457090759
O          -11.14335361265563       -1.09704348765126       -1.05042959365282
