42
 energy: -62.486133507312 gnorm: 0.000480945354 xtb: 6.7.1 (edcfbbe)
N           -0.94409956274538       -1.31951119863294        0.27648773827906
H           -0.58087322797272       -0.75477444327031        1.03758455071402
H           -0.15723234239808       -1.66261301671236       -0.26247186974270
H           -2.51283698943890       -2.07050944921435        0.97846636616598
C           -1.85187380684855       -0.53996523204556       -0.56534898528120
H           -1.55030889282557        0.50772087822797       -0.69264356006673
C           -1.98068114637471       -1.19281735985719       -1.94174081010405
C           -3.22162465920102       -0.56554312318947        0.09904593243994
H           -2.28294098769467       -2.23300062324688       -1.83789370787974
H           -2.72868680687447       -0.66374587650841       -2.52459449669184
H           -1.03026990629998       -1.15477770806431       -2.46984959403480
O           -3.38542016693520       -1.61802832462099        0.94527037410510
N           -4.03011544519722        0.34856217636525       -0.16198334984561
H           -5.12568659424888       -1.75888803797839        1.20658345250647
C           -5.40381617188863        0.53487902696356        0.24982809448033
H           -5.39709994820794        0.79966181186644        1.32138592677723
C           -5.93096445618720        1.72669358833511       -0.55925051991226
C           -6.31079936459453       -0.67972255574302        0.13901726190429
H           -5.12020572119210        2.45379121764309       -0.62073809013360
H           -6.13946732771814        1.37603525831259       -1.56959157872111
C           -7.17635841299697        2.39883066875176        0.02926199650022
O           -6.03584832111942       -1.77448936878305        0.86238344623053
H           -7.88165316773956        1.62140204019918        0.33609722955454
C           -6.82499465468875        3.25155931762920        1.24712448401149
C           -7.84308136939097        3.27017986100941       -1.03385728172631
H           -6.13476337926397        4.04478637463969        0.96706492584707
H           -7.72149225498911        3.70873590520607        1.65970927694625
H           -6.36215865537641        2.65602369079993        2.03029792355602
H           -8.15950506112664        2.67337584423544       -1.88560065933969
H           -8.71849022437959        3.76797498763609       -0.62345555339432
H           -7.15041625986876        4.03195067416671       -1.38560949028991
N           -7.34280641039193       -0.59156714648669       -0.58175048690597
H           -8.26545541751776        0.25085871353849       -1.87615084307368
C           -8.28188038396419       -1.68034732679482       -0.71176180887874
H           -7.77829583707494       -2.64927880741450       -0.82219469861975
C           -9.23227048259433       -1.75301062985784        0.48904038368698
C           -9.11718927819381       -1.40099232553603       -1.97003481158798
H           -9.71814782713067       -0.79050157676227        0.63773503595469
H           -9.99000399165869       -2.50869179723870        0.30236475859294
H           -8.67483262115993       -2.01233408491224        1.38560726560156
O           -8.95019289270852       -0.17370648648781       -2.44792683675494
O           -9.86135084178709       -2.20623168267175       -2.45697194482390
