42
 energy: -62.486133493449 gnorm: 0.000483044208 xtb: 6.7.1 (edcfbbe)
N           -1.93101301569984       -0.12173708757264        0.74488864438741
H           -1.18896450186993       -0.57843763456197        1.26509970643414
H           -2.52069207601558        0.37894544872159        1.40161868698302
H           -3.88657466311922       -1.31417511980291       -2.08548748063368
C           -2.74361918898157       -1.11117345323242        0.05904144422881
H           -2.18398526908497       -1.42779207187756       -0.83540237808512
C           -3.06443537319045       -2.35286713271985        0.90870673745810
C           -4.04006504932156       -0.45521803402718       -0.36827561604277
H           -3.62072072612329       -2.05410923258275        1.79342821316753
H           -3.65625154266251       -3.07314749707495        0.35024838712045
H           -2.13915963251571       -2.83539224646384        1.21831726494430
O           -4.48698284413591       -0.71978106455871       -1.61768699715870
N           -4.63957353462152        0.26177809971223        0.47083303442961
H           -8.18886836014903        1.61658201134409       -0.06775872040521
C           -5.84676032489915        1.00029100991490        0.18901659271745
H           -5.98914243932975        1.64327865310920        1.06947150877156
C           -5.67924429567357        1.88088274849311       -1.07082760435652
C           -7.04475092150022        0.08101040000959        0.11348858771036
H           -4.65495457041565        2.26111646463050       -1.02932906129137
H           -5.75401020604438        1.23689608415515       -1.94857815692437
C           -6.61956068378587        3.08066953742770       -1.25536853336082
O           -8.25798420373847        0.65459685236238       -0.04311049950949
H           -7.63045459231436        2.73416932192686       -1.50421527480174
C           -6.68209350363593        3.98458694095968       -0.02430865667955
C           -6.12526126386107        3.89057275362943       -2.45609563289858
H           -5.67892473565847        4.28296254266826        0.27177000927965
H           -7.25126838711520        4.88329191921146       -0.25238744013632
H           -7.15797143195544        3.50000431222010        0.82652807127665
H           -6.05815479804141        3.26257293721670       -3.34131430672487
H           -6.80646141674211        4.71124740494722       -2.66916854803380
H           -5.14045036064552        4.30549699750176       -2.25372874345792
N           -6.90271577365422       -1.15793988548053        0.27921874978165
H           -5.89816696844205       -2.50147663568763        0.85872730069528
C           -8.02146553467741       -2.07126511876645        0.24671651599781
H           -8.84233865409859       -1.72462689473481        0.88834946126040
C           -8.55951961138337       -2.27850373423743       -1.17254687920072
C           -7.51471777302048       -3.41776614555877        0.78624678893920
H           -7.74281324862978       -2.54096021214086       -1.84205452983809
H           -9.28696301348128       -3.08528578767343       -1.16275698505871
H           -9.03222926475216       -1.36747157702250       -1.52968196307220
O           -6.21458821669753       -3.41845821683473        1.05502314286315
O           -8.22231928943666       -4.37539334808508        0.93228019323513
