42
 energy: -62.486133512884 gnorm: 0.000480067117 xtb: 6.7.1 (edcfbbe)
N           -2.77925914487745       -1.90408360822570        1.82840890557479
H           -1.89855069404244       -2.38918030333435        1.95182321526220
H           -3.50759673681764       -2.61063360489180        1.74649849194419
H           -3.86322833160372       -0.47911299035576        2.54276556753924
C           -2.75630164999014       -1.08376070287541        0.61864912341080
H           -1.86669983189122       -0.44139757032202        0.67863402372708
C           -2.72189510856871       -1.86713091925532       -0.69186810496090
C           -3.96482077834500       -0.16680003495543        0.69724607661418
H           -3.51712771087501       -2.60790631622222       -0.70577465981651
H           -2.86942785624050       -1.18467388459665       -1.52120314479013
H           -1.76699512844647       -2.37610677637044       -0.80394835627038
O           -4.39154620711482        0.09055405516884        1.94659988118906
N           -4.49248411658726        0.29534880819864       -0.34820321079139
H           -7.95875340941925        1.84525794929378        0.27688264836310
C           -5.66163314568906        1.13950843880635       -0.23497362024300
H           -5.55244177126718        1.85533011932239        0.59424156058932
C           -5.77802946906040        1.87505598296084       -1.58391518874910
C           -6.86746915088957        0.27527264761084        0.06901036417859
H           -4.79679001890658        2.31507845925019       -1.77294914891691
H           -5.94114956534788        1.11354430048507       -2.34856218399310
C           -6.84171849548577        2.97011484843981       -1.72044706107416
O           -8.05022741838813        0.88482565992029        0.29574859189878
H           -7.84180315755292        2.53022576558714       -1.63111387376037
C           -6.67397411151908        4.07583114028661       -0.67762430387596
C           -6.74324006477325        3.57652879700163       -3.12118063938049
H           -5.68112236779095        4.51343839871086       -0.75674415423052
H           -7.40676707795093        4.86283893584872       -0.84344130565619
H           -6.79951910550627        3.71356586081400        0.34152190105554
H           -6.86880408684385        2.80938828830693       -3.88124207964992
H           -7.51350928689903        4.33084587569344       -3.26484097796537
H           -5.77248567100006        4.04560094698625       -3.26433138323997
N           -6.70953185836070       -0.96647091952947        0.17899190196867
H           -5.54476500143855       -2.21957074164806        0.39879210725020
C           -7.73869070743814       -1.89355892387879        0.56976932291072
H           -8.36789100943141       -1.49819139830159        1.37763112490604
C           -8.63127107401449       -2.29123026945284       -0.60951234804706
C           -7.00000874282997       -3.14373397564306        1.07903818453348
H           -8.01801310195206       -2.64149096537072       -1.43728810973215
H           -9.30223608505897       -3.08750575720074       -0.29969925709364
H           -9.21342211612137       -1.43382128601783       -0.93786570457530
O           -5.69098512759604       -3.09967491692161        0.84235730322717
O           -7.54400577956237       -4.06414511265372        1.62105343673845
