42
 energy: -62.486133516032 gnorm: 0.000479430881 xtb: 6.7.1 (edcfbbe)
N           -1.11799058798763       -0.65710863593634        0.78853558748661
H           -0.17251292880512       -0.91277529063269        0.53045214730239
H           -1.41274462062298       -1.28480416431948        1.53154449964349
H           -2.18039185221827        0.90533056660784        1.22402065602450
C           -2.02472029461791       -0.78314772852451       -0.35156216580204
H           -1.54883644286740       -0.27371214581520       -1.20044701127321
C           -2.35647768020832       -2.22035212224454       -0.74675895903593
C           -3.27608742381539        0.01103697417402       -0.00976930776797
H           -2.83310059818875       -2.73617151362912        0.08407153375061
H           -3.04389651266735       -2.22073618368684       -1.58539380532918
H           -1.45027671831169       -2.75498791891854       -1.02533883529468
O           -3.09711053899921        0.98785138851560        0.89259405134069
N           -4.37129476424636       -0.26518729239013       -0.56422087065101
H           -5.80956369798204       -0.61976702169130       -2.30057417289250
C           -5.55901488940142        0.51294366430426       -0.26508135222344
H           -5.62986482378688        0.72974494753986        0.80606228638291
C           -5.55757156564580        1.83149244809885       -1.05758904914482
C           -6.72179036786504       -0.35672055013316       -0.67515870641369
H           -4.75533313068482        2.45745112476793       -0.66226964362939
H           -5.32153209400837        1.61228760645343       -2.10376219124115
C           -6.88626748016875        2.59197381574716       -0.99303879608234
O           -6.68285025788342       -0.82164424983782       -1.93509040898530
H           -7.67801068163359        1.94891203452836       -1.39396191219918
C           -7.25196735727029        2.97140805656476        0.43927194526859
C           -6.79339460763820        3.84442691081183       -1.86345759567285
H           -6.43716487635088        3.52094843181573        0.90594998776677
H           -8.13831621809261        3.60124520188193        0.44352694112093
H           -7.46469345310314        2.08674726148798        1.03266943615454
H           -6.55030703505185        3.58646837529714       -2.89203017823902
H           -7.74026022833080        4.37866414059472       -1.86070959981522
H           -6.02208330916247        4.51169963570934       -1.48443088925108
N           -7.60394693167652       -0.66650671804892        0.16875751942966
H           -8.45366493780339       -0.32939916564794        1.72603173780840
C           -8.72080133797729       -1.52028581816971       -0.17556635083037
H           -9.14235936915328       -1.26531963235600       -1.15572581668163
C           -8.32311750035429       -3.00012842439317       -0.17911902428962
C           -9.80038660644082       -1.31026487550177        0.89668375617868
H           -7.86262137415693       -3.26242392488335        0.77112909015851
H           -9.21110270712084       -3.60842320151436       -0.32520521442418
H           -7.61521783276157       -3.19159126248806       -0.98138538474270
O           -9.38237918579567       -0.59110869133312        1.93165405384892
O          -10.90516643573784       -1.77009187654365        0.81362703003494
