42
 energy: -62.486133516477 gnorm: 0.000478578666 xtb: 6.7.1 (edcfbbe)
N           -1.13067082485815       -0.73308737965540       -0.51739614677112
H           -0.44860260120322       -1.46654534827215       -0.66797492303327
H           -0.81870229403003       -0.18688944155504        0.28126187777600
H           -2.09930120681701        0.57559438803398       -1.51184035681677
C           -2.45248638836407       -1.29628918377336       -0.24227977953436
H           -2.64275724696720       -2.06344634834092       -1.00463693793052
C           -2.61039498050531       -1.91548545176014        1.14315761264272
C           -3.47217964901427       -0.18615637283261       -0.48321590264916
H           -2.38244898364215       -1.17844766861559        1.91046595233410
H           -3.63706361551447       -2.23875180769926        1.27599395649939
H           -1.94264074079093       -2.76684740958397        1.25810286392886
O           -3.04369412866508        0.76824322584509       -1.33708499396051
N           -4.58942696236265       -0.26889722191809        0.07718033374323
H           -6.16004107288043        0.20969367610100       -2.37755346495171
C           -5.70541921689874        0.64101741108858       -0.02946971800254
H           -5.99239308830769        0.83662931899786        1.01012137492093
C           -5.51192342694993        1.97218659309125       -0.76693713304032
C           -6.81229029171142       -0.20681725813448       -0.62694501236828
H           -4.74871485703816        2.54498231832213       -0.23659244508369
H           -5.12564170462473        1.79997223411187       -1.77533479873798
C           -6.80050396168618        2.80122969434315       -0.85591235876784
O           -6.84664870478018       -0.33337443363315       -1.96857418538606
H           -7.58448131821185        2.19657905012056       -1.32699919864069
C           -7.29656431984243        3.23187184664970        0.52247923306499
C           -6.55091487392577        4.02980631989601       -1.73013923787715
H           -6.51192633439599        3.75808294820551        1.06204155868296
H           -8.14776137513705        3.90070061254192        0.41921260783604
H           -7.61323787768292        2.37541001929476        1.11146535762267
H           -6.22245481941971        3.74005012574818       -2.72626383318419
H           -7.46024692384689        4.61750648574872       -1.82943673161963
H           -5.78249677374602        4.65898738951320       -1.28600955119679
N           -7.58995167244057       -0.82621157278514        0.14353548170527
H           -8.30698000595335       -1.07733945019172        1.79195799867199
C           -8.61057105548871       -1.71996736152540       -0.35622379075554
H           -9.14320213347826       -1.29621032852508       -1.21676200505095
C           -8.01946198266626       -3.07620728147218       -0.75762734634683
C           -9.61067152537783       -1.94968877534122        0.78647726973071
H           -7.44967983536636       -3.49034799625002        0.07163633828381
H           -8.82524472425981       -3.75774414420923       -1.01516302577770
H           -7.36023623797168       -2.95324548744688       -1.61303937163682
O           -9.18006442963138       -1.50385474679396        1.96023627549650
O          -10.66609708201569       -2.49871698567669        0.63302128019136
