42
 energy: -62.486133522894 gnorm: 0.000479029814 xtb: 6.7.1 (edcfbbe)
N           -2.02681593393358       -1.84654943421690       -0.67600643629265
H           -1.89041011477525       -1.66209043324616       -1.66374418338311
H           -1.97541978202025       -2.84788885060804       -0.53270677981130
H           -1.31266229279121       -0.36365718100668        0.18839951244756
C           -3.30993443469949       -1.31575294125617       -0.21152313310698
H           -4.10540512039023       -1.44884945151021       -0.95322262686017
C           -3.71249955622090       -2.01081133791308        1.09057146520910
C           -3.09784072538768        0.17232758563331        0.12739017830676
H           -2.92911462788763       -1.88417671285179        1.83479718874497
H           -4.63290209481098       -1.57801502423525        1.47360589443846
H           -3.86822491526975       -3.07469963270480        0.92112237957639
O           -1.81602262370381        0.46031854860950        0.37576058240462
N           -3.93728602816199        1.08277327123719        0.33715061704239
H           -5.31456065989834        0.34150138221799       -2.21593464705961
C           -5.33390651007727        1.20522145892157        0.06107833059851
H           -5.79470232340230        1.43227088758127        1.03050184420582
C           -5.50966562902460        2.43226954650523       -0.85682762896454
C           -6.08242029944516        0.01104203769876       -0.49140891017552
H           -5.05713208643263        3.27875335650191       -0.33986367981540
H           -4.93258658344472        2.28436704374831       -1.77623103781698
C           -6.96605743719656        2.75764591946408       -1.21011232624336
O           -5.87562967251638       -0.32024245205335       -1.79027545160315
H           -7.41758037901475        1.89827787588721       -1.72007883866563
C           -7.79523069027411        3.06176146517461        0.03496559151571
C           -6.99611356864720        3.95055435955495       -2.16499708485722
H           -7.32692860569969        3.85043630230628        0.61934090219397
H           -8.79043122348001        3.39223550428786       -0.25284046293968
H           -7.90344821376323        2.17901190740889        0.65934227175656
H           -6.42268225526911        3.74487385396627       -3.06661116360009
H           -8.01857925260855        4.17742033386192       -2.45642757306430
H           -6.57348132051992        4.82910341192444       -1.68301225563898
N           -6.91103538425572       -0.59040240686564        0.24176956609111
H           -8.02463866180916       -0.56082216880640        1.70988088904428
C           -7.73270445521176       -1.66905501681749       -0.25995393302808
H           -8.03037741413889       -1.50402994722283       -1.30326229084840
C           -7.03059733936561       -3.02705314697100       -0.15637114889358
C           -8.99433465557883       -1.72411787810285        0.61494116464375
H           -6.70321701509718       -3.20219726198157        0.86609539059585
H           -7.72696276119024       -3.80922237329935       -0.44534034757879
H           -6.16804782230479       -3.05325709821972       -0.81781313281880
O           -8.89711021778537       -1.01365354259031        1.73280595915490
O           -9.96162157075076       -2.36831962748870        0.32233938206822
