42
 energy: -62.486133518001 gnorm: 0.000479168662 xtb: 6.7.1 (edcfbbe)
N           -1.97800067164853       -1.34118880862597       -0.42280619987311
H           -1.37749977156980       -2.14590405974410       -0.28947215032952
H           -1.43387734313590       -0.51349942213245       -0.19413259592212
H           -3.24411326048046       -0.66590718303527       -1.72740193944809
C           -3.15208500157239       -1.41701252759229        0.44731083697903
H           -3.56797908946484       -2.42779028131545        0.34525820154985
C           -2.88034231152279       -1.13564839623942        1.92233721459852
C           -4.19880283058331       -0.47140656306463       -0.12263330567725
H           -2.42137348986461       -0.15594281189475        2.03963547381116
H           -3.81973438373660       -1.14092129938472        2.46361237799925
H           -2.21693567941043       -1.89071439475373        2.33855109725417
O           -4.07074436099824       -0.22781271507683       -1.44044772126174
N           -5.10751808279057       -0.03764836111410        0.62805885393966
H           -7.83535767200234        1.33431001301003       -1.61992155574712
C           -6.18182893211081        0.80173192996901        0.14584423616702
H           -6.64586713606990        1.20408961029796        1.05861317701540
C           -5.74782808247678        1.97529884516030       -0.75162766227225
C           -7.22100622323099       -0.10041473337462       -0.49852562052153
H           -4.71408671864954        2.21990320610681       -0.49982519368753
H           -5.74396761052360        1.65751603914723       -1.79785872694798
C           -6.60261573854325        3.24048850713198       -0.56551310007479
O           -8.05289978184527        0.41349117907699       -1.42667928209925
H           -7.65735309938682        2.96614825424575       -0.43033945829326
C           -6.16279670728827        4.00543756593668        0.68154058174288
C           -6.49165706739027        4.13868694774951       -1.79698803635509
H           -5.14596056185506        4.37218403095672        0.55891542050585
H           -6.81566780062447        4.85765113198246        0.85626985429646
H           -6.19159162510474        3.36636864410333        1.56072947354815
H           -6.85701364792349        3.63438981366354       -2.69001934142695
H           -7.07259559126921        5.04762810666329       -1.65877090887334
H           -5.45416546518497        4.41880449742729       -1.96515206150395
N           -7.28071981101302       -1.29262362521044       -0.10497707596393
H           -6.68595122951100       -2.50712448982902        1.05065877899684
C           -8.21207742247473       -2.26961288984698       -0.60944416192669
H           -9.24898995696877       -1.92137174234360       -0.51551492211736
C           -7.94910395302839       -2.64746640276013       -2.07071220578694
C           -8.03773673375628       -3.52443804019636        0.26544456190300
H           -6.90314531344787       -2.91943139239550       -2.19879851798763
H           -8.57300450756140       -3.49640119190437       -2.33596444738162
H           -8.17982029124175       -1.80912704791003       -2.72245563134800
O           -7.05712742938727       -3.41946472604337        1.15221446531829
O           -8.71524893195440       -4.50728137706260        0.13992312507851
