42
 energy: -62.486133508304 gnorm: 0.000480804187 xtb: 6.7.1 (edcfbbe)
N           -1.37580160837794       -0.04657745066756        0.61131651992428
H           -0.59032392615608       -0.54072168113861        1.02077344498224
H           -2.07744735022943        0.09518946062823        1.33042886001370
H           -2.84802006650252       -0.26204639197060       -2.67812523659462
C           -1.95718147558332       -0.82513005306885       -0.46386091553042
H           -1.29728675973895       -0.72110825787098       -1.33937258116684
C           -2.12505731183554       -2.32259958249078       -0.14365937805099
C           -3.32521341142323       -0.26752511888636       -0.78771783622349
H           -2.77532881340367       -2.43586824996574        0.72059557554488
H           -2.56637010909006       -2.85451463932793       -0.98390396216727
H           -1.15635185200563       -2.76613158624966        0.07696089563181
O           -3.62652574301374       -0.12658153564535       -2.12410622947162
N           -4.10073672723163       -0.01593104150391        0.15796250199853
H           -5.33242491761715       -0.71884193979655       -2.03310018590945
C           -5.44665509697443        0.49986043796137        0.10611337643688
H           -5.73339154796413        0.64891353710485        1.15076767563104
C           -5.51786372237686        1.84544280692097       -0.64577169608168
C           -6.44705611895176       -0.46298669909569       -0.49709953750286
H           -4.73702916388224        2.49220699069761       -0.23851685463683
H           -5.28760361144741        1.67176037476054       -1.70017275993014
C           -6.87400605325123        2.55062322690683       -0.53989617281155
O           -6.17039606806052       -1.05039570472531       -1.66920239039645
H           -7.66069092197561        1.84963269091403       -0.83768692687097
C           -7.15955879245824        3.02402760890009        0.88285660321624
C           -6.89847153922802        3.74125699408515       -1.49791706356246
H           -6.37772355972277        3.70148207317154        1.22059691176808
H           -8.10926288389609        3.55210410656389        0.91539559388553
H           -7.21783461106957        2.18756491949721        1.57342259481798
H           -6.73201378477647        3.41928560878254       -2.52366730400285
H           -7.86103129590910        4.24418970117923       -1.45121309494350
H           -6.12370867387233        4.45763372154371       -1.23194366697847
N           -7.53755691048081       -0.62746727784689        0.11670736419024
H           -8.77993732252200        0.03449585281642        1.26782427305641
C           -8.58138169084567       -1.47473148881201       -0.41418577795821
H           -8.66703669911747       -1.38904986671039       -1.50548183842133
C           -8.34373456557441       -2.94461247985092       -0.05170959496368
C           -9.90404257331318       -1.02333346964256        0.22194977655637
H           -8.20747294864906       -3.04367603749804        1.02322031493721
H           -9.20311328513882       -3.53369845755787       -0.35907088799148
H           -7.45342457923411       -3.31081943095613       -0.55706005910202
O           -9.74680009784779       -0.14550494666213        1.20576412387104
O          -10.97332306934925       -1.43784216871914       -0.12927934061049
