42
 energy: -62.486133503247 gnorm: 0.000480990377 xtb: 6.7.1 (edcfbbe)
N           -1.11807266869155       -0.97458053146242        0.89287820654020
H           -0.13763001356227       -1.12136382894889        0.68569181188284
H           -1.47331707875564       -1.82883219609744        1.31389488697730
H           -2.28459837130492        0.33884902031432        1.71737408809746
C           -1.87148398754254       -0.66878313721225       -0.32166715616287
H           -1.31824297100793        0.11447760838246       -0.85705474606679
C           -2.08791641134560       -1.85826866326874       -1.25595640458686
C           -3.18868164963301       -0.04852615610677        0.12172399099225
H           -2.68420732429951       -2.62236614318248       -0.76147441223860
H           -2.61142539979815       -1.53449825772784       -2.14928134181396
H           -1.13073087135362       -2.28834272321689       -1.54462018612646
O           -3.16131828186032        0.53154458356193        1.32899208974210
N           -4.18655604875597       -0.08459966582009       -0.64436015908393
H           -5.24933704233957       -1.17793053735226       -1.83054947122029
C           -5.45889552789361        0.49002689855165       -0.25741223010200
H           -5.50744558515982        0.71375880839556        0.81277748364821
C           -5.68442443713688        1.77660763067032       -1.07306067672812
C           -6.50606293852484       -0.54432732021349       -0.60533259095982
H           -4.87389387011347        2.46722895387826       -0.82892564408359
H           -5.59727804438480        1.52256171394061       -2.13275208235175
C           -7.03107238394590        2.46182635673037       -0.82481158158341
O           -6.17769934413872       -1.37818244180473       -1.60123223605948
H           -7.83119474636886        1.73949330299276       -1.01226407001613
C           -7.15623606669524        2.96496035230838        0.61072611468772
C           -7.19263888978050        3.62590288898049       -1.80156591167973
H           -6.36065992063282        3.67273477837245        0.83515423626685
H           -8.11103807971273        3.46617951682561        0.74800760495441
H           -7.10120788032687        2.14444790338737        1.32023739849975
H           -7.13901143041038        3.27896852064468       -2.83098703646849
H           -8.15453337628457        4.11036821764119       -1.65452957639208
H           -6.40896148101548        4.36476885578341       -1.64618451499392
N           -7.59836028535944       -0.56692465440076        0.02319015753883
H           -8.85667017495840        0.36303668942968        0.95021038160494
C           -8.63868668923135       -1.51697321830226       -0.30514174522708
H           -8.71080975773157       -1.69325722625024       -1.38613914024921
C           -8.41025848860496       -2.85781053563938        0.40051265109506
C           -9.96817308088231       -0.92707733756986        0.18775949409390
H           -8.28498394764357       -2.69704509684484        1.46942808640211
H           -9.26910560806699       -3.50192644666807        0.23448426515656
H           -7.51681892828380       -3.33576427413741        0.00616920687000
O           -9.82303981173773        0.16839455004729        0.92346575236455
O          -11.03351236476554       -1.42078259673310       -0.05844000875035
