42
 energy: -62.486131878026 gnorm: 0.000411621183 xtb: 6.7.1 (edcfbbe)
N           -1.13065978701503       -1.44283537108151        0.29755593462694
H           -0.15801459008976       -1.47765668963084        0.01842837309455
H           -1.46967563504116       -2.40036493523802        0.33983660322767
H           -2.22485384028708       -0.63098246358971        1.62090152880072
C           -1.92615807148548       -0.67804730214325       -0.66371493622910
H           -1.35885275397512        0.22659089557672       -0.91619368520713
C           -2.27523655154267       -1.42885198854680       -1.94663638188252
C           -3.18132890311171       -0.21508006817749        0.05595947230815
H           -2.80659635372368       -2.34865022410684       -1.70956851736349
H           -2.92204813957013       -0.80999600809245       -2.55905762712316
H           -1.37274627945458       -1.67413071973448       -2.50262428908841
O           -3.11624929385492       -0.28154806359493        1.41104924351820
N           -4.17792019069481        0.18253124235633       -0.59435980903251
H           -5.08499926794939       -1.06943960464134        1.66924281148943
C           -5.35080058054245        0.69963831647326        0.08901737691527
H           -5.08804099903514        1.09747312066872        1.08099491603991
C           -5.95794140877709        1.79310410064290       -0.79054512303758
C           -6.26732011570879       -0.48749088075952        0.27463241943912
H           -5.18981224587859        2.54989647745354       -0.96060053406282
H           -6.19577679427093        1.33782667127743       -1.75137240669294
C           -7.20859986021039        2.45408220366508       -0.20285170368781
O           -5.91710885654561       -1.34685673915804        1.25671474939445
H           -7.90310178885197        1.66793920940974        0.10705612174229
C           -6.87291769016884        3.31891521265545        1.01078626231689
C           -7.88681852138611        3.30417175310973       -1.27565961872142
H           -6.14785250096906        4.08490159938543        0.74284638206820
H           -7.76900320332908        3.81205275894585        1.38069877528168
H           -6.46140248326279        2.72304177713021        1.82154818235997
H           -8.17592610359857        2.69237852867453       -2.12641591463824
H           -8.78008742085731        3.77910838334503       -0.87689183252785
H           -7.21208149127157        4.08299639179640       -1.62464351589317
N           -7.24234637038608       -0.67542855268653       -0.49585057644880
H           -8.11594468080727       -0.25062016484750       -2.00955310933315
C           -8.09981591421593       -1.83228662421021       -0.39516784383891
H           -7.52503775717253       -2.75794913498347       -0.26452785502832
C           -9.09663858884048       -1.70222551556829        0.76189403811041
C           -8.89085249118136       -1.91667616813093       -1.71059134920383
H           -9.65028936364593       -0.76947477434376        0.67264100947181
H           -9.79459001821738       -2.53397509957857        0.72931735567502
H           -8.56601070437714       -1.71124205631259        1.71072628470076
O           -8.75736112200734       -0.84037939986728       -2.47457598903913
O           -9.57737252408795       -2.85648591748428       -2.00151010423710
