42
 energy: -62.486133505561 gnorm: 0.000481604842 xtb: 6.7.1 (edcfbbe)
N           -2.25664541997888       -1.32288432691802        1.70197787313855
H           -1.86429047884410       -0.49706540846895        2.14158083590542
H           -1.52076565057029       -2.01381114438137        1.61628505560396
H           -4.11114849286211       -1.33060338346419        2.23159798009457
C           -2.82163448420737       -0.99687573198951        0.39478770090265
H           -2.20815686435488       -0.30951538700189       -0.20301637001636
C           -3.06080725374809       -2.28503843248538       -0.39533897578914
C           -4.18174281309884       -0.36097627482113        0.63080116547066
H           -3.67715201612195       -2.96884825109993        0.18449165002837
H           -3.57034092478318       -2.05285522513265       -1.32563266811610
H           -2.11503494715141       -2.77239400094696       -0.62300403149825
O           -4.77784040953565       -0.78284729081141        1.76177776426640
N           -4.57638105283024        0.52371024085010       -0.16518657091329
H           -8.10669564046334        1.32830186482360       -1.24216119619626
C           -5.90239270376193        1.07808466305250       -0.25834806090249
H           -6.09877474743811        1.69044961889804        0.64053147158033
C           -5.91349515290422        1.99121002061568       -1.50164336691820
C           -7.02494453393422        0.05417751332775       -0.27576730988499
H           -4.86888950980586        2.17526486849358       -1.75514522320776
H           -6.34804758836342        1.45526013337199       -2.35011090903185
C           -6.61740105214524        3.34253768210476       -1.29959712061885
O           -8.17516396455032        0.43509446189402       -0.88322982881227
H           -7.54814417194559        3.20375544294216       -0.73214195262643
C           -5.72707994820411        4.29553601343826       -0.50467273311757
C           -6.96841254361773        3.95985926971393       -2.65253220288191
H           -4.82691467815753        4.52600673333220       -1.06970789757276
H           -6.25149147563844        5.22562865918284       -0.29735416650108
H           -5.42931775280222        3.85203750368780        0.44225096535860
H           -7.64986214147036        3.32197977166919       -3.21257987117251
H           -7.44339583527260        4.92874061286373       -2.51770763879079
H           -6.06748420337803        4.10001297409417       -3.24535789013373
N           -6.91477800382715       -1.06441701172378        0.28477776925403
H           -6.14363001873576       -2.08593526928059        1.65590936069539
C           -7.98827058448886       -2.03090241988488        0.25350951692966
H           -8.95155914124124       -1.57216024311444        0.51576037247960
C           -8.11960922026682       -2.69256501097572       -1.12243986453529
C           -7.67873522651166       -3.11788021215866        1.29277358984757
H           -7.15227951310032       -3.07703848046204       -1.44012285354800
H           -8.82530967896273       -3.51560138960137       -1.05377294359941
H           -8.47330951791339       -1.97093375814297       -1.85402934696841
O           -6.54630529454138       -2.93940281791419        1.95453288078023
O           -8.40255662299371       -4.05912253100620        1.47619036301362
