42
 energy: -62.486133510235 gnorm: 0.000480465902 xtb: 6.7.1 (edcfbbe)
N           -1.79173331207907       -2.05421603612846        0.50939859984369
H           -1.53957417563355       -1.76356428866551        1.44852513196118
H           -0.98730780458780       -2.51485162434949        0.10018431823817
H           -3.71403567361774       -2.37421470042330        0.59511302585893
C           -2.19608721283596       -0.90465359896179       -0.29903739127291
H           -1.58099747418129       -0.00828526652560       -0.14121363857160
C           -2.16468146124656       -1.27955237739973       -1.78105592815723
C           -3.63350043397042       -0.57393543611163        0.07018231371503
H           -2.77958104750397       -2.15964159482460       -1.95746658114315
H           -2.55135756710728       -0.45505495014453       -2.37204397290282
H           -1.14570402418362       -1.49471873649571       -2.09628035697889
O           -4.33949240867878       -1.62377453465730        0.53360355260891
N           -4.04411312873187        0.59874408801704       -0.09518985240600
H           -5.74568477060031       -0.03842400875142        2.25297750453569
C           -5.40214582685799        1.05566476174498        0.10222326084638
H           -5.35768579245291        1.75051422611745        0.95464429851084
C           -5.79515489874988        1.83949236873625       -1.15651202178692
C           -6.40542744391825       -0.02988940518813        0.42192844650356
H           -4.97739312949805        2.52807941099729       -1.37455597092836
H           -5.87305095769463        1.12262581366910       -1.97329042062267
C           -7.11198967485893        2.61336181761007       -1.04731958475748
O           -6.49976798191426       -0.37831626032269        1.75776611926832
H           -7.91304446646343        1.90434023494180       -0.81849828353627
C           -7.06867265159414        3.68176407343007        0.04341526046747
C           -7.41708771036030        3.26231237325655       -2.39635357200659
H           -6.20921058865422        4.33477753767721       -0.09588606031707
H           -7.96989947009926        4.28921966287273        0.00530253237467
H           -7.01258176876083        3.23911545773488        1.03494772566110
H           -7.46730961649337        2.50891801124115       -3.17796258341722
H           -8.37075249531435        3.78327835894407       -2.36213042511387
H           -6.64177643342636        3.98019696893355       -2.65675951243168
N           -7.12097536372265       -0.50455465406515       -0.48571182237806
H           -8.30746104412168       -0.49994382470836        1.79938884473402
C           -8.11123018157540       -1.54231263993681       -0.36409369169929
H           -8.38144686633359       -1.80565653065309       -1.39358649887403
C           -7.63138561700426       -2.80263421962771        0.36816124719809
C           -9.39589546212162       -1.03926547046664        0.31048930962907
H           -7.42111527548136       -2.59947277807132        1.41559398531034
H           -8.39501451033330       -3.57358612795492        0.30130948935075
H           -6.71822240880951       -3.16104892504759       -0.10074120466093
O           -9.24197642240199       -0.50014767642184        1.51989366879777
O          -10.47466667949819       -1.14271502365442       -0.20042412164233
