42
 energy: -62.486133518565 gnorm: 0.000479183959 xtb: 6.7.1 (edcfbbe)
N           -2.16046361845417       -1.69971497230949       -0.80096069160507
H           -1.53454334006272       -2.46710363379037       -0.58822701101461
H           -1.58670184755856       -0.90139813951373       -1.05987875620793
H           -3.77037127106830       -1.34732522379607       -1.81236755287709
C           -2.98513080468728       -1.36143853405288        0.35909277969900
H           -3.38672323364110       -2.30164702750338        0.75863671569433
C           -2.25466485568756       -0.61462275912068        1.47203740777289
C           -4.17993294200815       -0.57247980522772       -0.14915184800647
H           -1.81333609308444        0.30077312145107        1.08242657809965
H           -2.96509210346656       -0.34933837393218        2.24718482507451
H           -1.46783511551127       -1.23521120311848        1.89581178861260
O           -4.45856620497345       -0.74998364942966       -1.45598341624024
N           -4.84164857997227        0.14369087573344        0.64390835937603
H           -6.82720064198807        0.78672287400525       -2.18284842363258
C           -6.01868857887148        0.86172943865104        0.18373958140507
H           -6.50955483088974        1.20104889384592        1.10364064331899
C           -5.62475989175863        2.07952819846339       -0.66015759039136
C           -6.96650823230386       -0.11267526353797       -0.49570648263991
H           -4.80355709680287        2.57716525493431       -0.13878347456945
H           -5.22198237884632        1.74108187640656       -1.62086020852420
C           -6.76398068294773        3.08831235707410       -0.87303558698875
O           -7.30740752414223        0.04947330793177       -1.78598218080839
H           -7.69559055426969        2.55325408400924       -1.09152293354567
C           -6.98912542862223        3.92984648534023        0.38128788631140
C           -6.43799624675305        3.99910446272286       -2.05682578900191
H           -6.09627203627396        4.50536391555968        0.61650040791427
H           -7.81277251604923        4.62304446342178        0.22723146034423
H           -7.22920294728573        3.30319927423774        1.23612940685503
H           -6.32774861867194        3.42911767024112       -2.97781366214719
H           -7.23071394673829        4.72859501433896       -2.20381864600903
H           -5.50961909283787        4.53625922590526       -1.87395793772631
N           -7.37725188262574       -1.08084822902444        0.19940657390125
H           -7.60988054157818       -1.85115084877700        1.81633499835832
C           -8.22411484761625       -2.11515350031265       -0.34747327565793
H           -9.04467745301979       -1.70138284944501       -0.94703013939836
C           -7.42474342665785       -3.09771998209721       -1.21142486525789
C           -8.81358280924969       -2.88867565111549        0.84107546623122
H           -6.59196683689999       -3.49969678915822       -0.63716124922232
H           -8.07173644001304       -3.91359514047433       -1.52075197082147
H           -7.03626676293424       -2.58702133833640       -2.08881167189600
O           -8.25897033744697       -2.57106643275504        2.00413469199505
O           -9.67404089068284       -3.71678074527768        0.72208110443867
