42
 energy: -62.486133496023 gnorm: 0.000482180379 xtb: 6.7.1 (edcfbbe)
N           -1.54869437106556       -0.58046499919490        0.86325138667302
H           -0.75292764144101       -1.19619002528911        0.74363430914094
H           -1.76578532919221       -0.55588205875771        1.85616251750677
H           -2.19370922381515        1.15217497995097        0.26580752296809
C           -2.70734982379561       -1.08265691754675        0.12297763369429
H           -2.36901328776223       -1.27814808315159       -0.90394552941995
C           -3.33913072191445       -2.34805829807408        0.69473915237400
C           -3.70832866716949        0.06226305452879        0.03843843510870
H           -3.67828598385228       -2.17375872121893        1.71279363776566
H           -4.19832291826945       -2.62640807189939        0.09553884585406
H           -2.61940953630885       -3.16411664061626        0.69415844861012
O           -3.14164349727902        1.28850209887442        0.06709668454836
N           -4.92887299121844       -0.20613540510444       -0.04021200866814
H           -7.93589594763385        1.19126109916692       -1.69202336594133
C           -6.00468517835661        0.74849561507735       -0.16858576311649
H           -6.15609841776056        1.22262138849164        0.81220013961938
C           -5.77714381315676        1.84717408371842       -1.22271550924223
C           -7.23851867102193       -0.10094377061062       -0.44984828546139
H           -4.72115423132367        2.11409466972561       -1.20893441371258
H           -5.98296764792211        1.43780107200709       -2.21747952743886
C           -6.59229377527615        3.12828162253222       -0.97339421121539
O           -8.18306570563547        0.34236401663995       -1.30398019787898
H           -7.59434180750931        2.87618595705995       -0.60214160235789
C           -5.91297821635712        3.99360866068292        0.08626682757605
C           -6.74057314376101        3.91769360714121       -2.27388004651999
H           -4.93990644225488        4.32681046282853       -0.26714476566891
H           -6.51851408305314        4.86920454418190        0.30913768982463
H           -5.76584214472479        3.43677489134189        1.00838463531481
H           -7.28110504185166        3.34686968154025       -3.02747003551913
H           -7.28303914927130        4.84338066323326       -2.09729668900473
H           -5.76046828434087        4.16744244330004       -2.67410114864030
N           -7.32623315916583       -1.19035704737826        0.16866595638551
H           -6.48732462895222       -2.33067349675076        1.21817356066396
C           -8.39746014774967       -2.14259068239291        0.03234848095593
H           -9.35700586644314       -1.70605375249048        0.33824146576125
C           -8.54157663428794       -2.70928031993004       -1.38375760416542
C           -8.06041738988623       -3.30028673313462        0.99255926977042
H           -7.58067112031148       -3.08514591048649       -1.72948590086646
H           -9.25834220482628       -3.52548694501067       -1.36794876249279
H           -8.88665486814874       -1.93655776930807       -2.06501394598134
O           -6.86516237911700       -3.18594067180248        1.55265753251163
O           -8.80527720192786       -4.21989419850218        1.19506047709369
