42
 energy: -62.486133510539 gnorm: 0.000480178293 xtb: 6.7.1 (edcfbbe)
N           -1.30888346020496       -1.38881231284099        0.54080866602439
H           -0.36794097704036       -1.59202087693968        0.22663042200419
H           -1.71263655488908       -2.26011900491491        0.87464595329851
H           -2.27341158707750       -0.13658121717688        1.63206503997497
C           -2.12104767576869       -0.85642948907086       -0.55366410450721
H           -1.52452639925756       -0.08597264230060       -1.05832694817517
C           -2.57655166860763       -1.89259596951829       -1.57801168952763
C           -3.31231621848194       -0.14442537519145        0.06799860512198
H           -3.11744727022907       -2.69566779331051       -1.08161355586855
H           -3.24671579010146       -1.41948631785020       -2.28720083853831
H           -1.72214715049933       -2.31298348085547       -2.10419531076284
O           -3.15642131850780        0.19304976971008        1.36979359419566
N           -4.32985774470088        0.09161045034252       -0.62741920136223
H           -6.06946585318718       -0.12055067755248        2.05507044805380
C           -5.45173758567556        0.82429351536113       -0.08095754543995
H           -5.18753620457742        1.32231169769748        0.86464455821695
C           -5.89438690021921        1.85204188995027       -1.12776507169810
C           -6.54419501919466       -0.18958002086391        0.16618316730451
H           -5.05104474560222        2.51301072855210       -1.33621723800788
H           -6.12480457495814        1.28907531391351       -2.03123954128808
C           -7.11409699624264        2.68087164111653       -0.71485640228328
O           -6.73288370403608       -0.54070008450629        1.49256510755925
H           -7.91970222637523        1.99659483420386       -0.42818738158532
C           -6.80869547643652        3.60593274458556        0.46202618940023
C           -7.59018497522317        3.50363647527774       -1.91016828558037
H           -5.97395061162193        4.26145646408818        0.22172510110635
H           -7.67486710024389        4.22381955973139        0.68732442558590
H           -6.55858553835491        3.04530080784763        1.35940761750577
H           -7.84463752408555        2.85251505549850       -2.74206971415821
H           -8.47120875779602        4.08421884101201       -1.64720220856922
H           -6.80987661323639        4.18957471027957       -2.23349189987125
N           -7.15504970201126       -0.69861914914456       -0.79542577081333
H           -8.54134428810170       -0.65458686128947        1.37876892772112
C           -8.15705177352935       -1.72972656325509       -0.75170148285202
H           -8.34054113329547       -1.99880256447979       -1.79831014262367
C           -7.73910673565975       -2.98758667505307        0.02307127752968
C           -9.49713398154534       -1.23261635677126       -0.18736716880840
H           -7.60543683702555       -2.77761133929353        1.08216110987842
H           -8.50166146366091       -3.75388469829439       -0.09196145687520
H           -6.79916880023291       -3.35926373449865       -0.37900593890775
O           -9.44767089420693       -0.66774119446676        1.01888808599187
O          -10.53026142228983       -1.36497589808081       -0.77848429622609
