42
 energy: -62.486133517669 gnorm: 0.000479635418 xtb: 6.7.1 (edcfbbe)
N           -1.65105587134570       -1.87952461273547        0.29974216243009
H           -1.23735430537858       -1.43380566538285        1.11224762020176
H           -0.92045029766340       -2.39100420708462       -0.18139997292771
H           -3.49423453975413       -2.16496725210357        0.83326066782683
C           -2.25288590743546       -0.88334242375639       -0.58560211489925
H           -1.64814849631337        0.02468852977329       -0.71321900305405
C           -2.52096913860852       -1.50628097694263       -1.95591710805300
C           -3.59554660461718       -0.49057573783612        0.00978798217128
H           -3.14092217997043       -2.39331544336926       -1.84733118152218
H           -3.04165188018763       -0.78955663142619       -2.58298587798092
H           -1.58547003459992       -1.78637627374889       -2.43615201861413
O           -4.14984833854892       -1.43846085699533        0.78556393057806
N           -4.04672699846675        0.65222537576073       -0.24348211676249
H           -6.65931154146806        0.95432726639094        2.17720606181615
C           -5.36238184540066        1.12816121427401        0.10204785783060
H           -5.23411777802024        1.81891711436880        0.94949820035961
C           -5.88164962506173        1.91263565418869       -1.11648842255559
C           -6.37185360271679        0.06361231915731        0.46483867276344
H           -5.10780258273840        2.62326149508226       -1.40842904152192
H           -6.00371377652425        1.18832523867741       -1.92231749473419
C           -7.20761318872997        2.64304560171971       -0.88115505238464
O           -7.02778191637462        0.21928821864548        1.67319605004197
H           -7.92719885382740        1.94313078130995       -0.44139092278152
C           -7.04221867277939        3.83830981908128        0.05603873291372
C           -7.77091728624242        3.11285603027520       -2.22088896242151
H           -6.33368937377385        4.54919115492924       -0.36376134709162
H           -7.99539818080054        4.34428599411423        0.19184292602347
H           -6.68122339632725        3.53804603231006        1.03728201929996
H           -7.94820304824829        2.26485580382283       -2.87723669410698
H           -8.71322842168306        3.63588849860664       -2.07607268086113
H           -7.07243690506847        3.78885153053847       -2.70945244151757
N           -6.58114485882666       -0.87023019461094       -0.33864765230187
H           -8.66658270877924       -0.28235942403234        1.05988673334182
C           -7.48808559507488       -1.97548365744496       -0.17602886316460
H           -7.25712573732176       -2.66189562732864       -0.99904706871617
C           -7.35108767518939       -2.72338812454895        1.15698773218541
C           -8.95067555353384       -1.54624249806278       -0.35849375288323
H           -7.68247704848595       -2.11348835253800        1.99453605938244
H           -7.94505582878772       -3.63337572637002        1.12518898186325
H           -6.30602338189926       -2.97983808593616        1.31241541296020
O           -9.37339476375751       -0.57761221225959        0.45549912666318
O           -9.67853352379433       -2.05480495455572       -1.16263208710540
