42
 energy: -62.486133509764 gnorm: 0.000480100827 xtb: 6.7.1 (edcfbbe)
N           -0.88197815923697       -0.27093405281907       -1.13637658446791
H           -0.11889874415352       -0.86782924661976       -1.43073545457554
H           -0.53499864600916        0.32460439029703       -0.38958445140533
H           -2.20815885989811        0.85067164598666       -1.90458742144913
C           -2.01413746957082       -1.06065714267713       -0.65576699768228
H           -2.18006342434499       -1.86304168154015       -1.38745472163998
C           -1.82319045890130       -1.67405297812039        0.72875405022672
C           -3.24656919073404       -0.15462075342363       -0.70897927989720
H           -1.61611017118217       -0.89312525410126        1.45741642288941
H           -2.73118767615442       -2.18589361556324        1.02870134898734
H           -0.99579069256572       -2.38069164232639        0.72063180129939
O           -3.12878849501921        0.86960576872599       -1.56744965762454
N           -4.22800349912796       -0.44899235837363        0.01897772771278
H           -5.13981902006308       -1.66680456908892       -1.35233798778556
C           -5.51264600707883        0.20423753257801        0.09894199080069
H           -5.72769704592324        0.27613346420696        1.17040105514558
C           -5.60494981711883        1.60762595192665       -0.53222099105222
C           -6.54868520061896       -0.72514754429066       -0.50899166047396
H           -4.78627524649685        2.20264489427917       -0.12142990217406
H           -5.44155704034704        1.51916800853213       -1.60797438531518
C           -6.92397054617649        2.34889056545442       -0.29721155298787
O           -6.10979614734264       -1.66811915371773       -1.36103620152054
H           -7.73608895658379        1.76483537458265       -0.73809003608564
C           -7.21780381138502        2.55604898355776        1.18625119484092
C           -6.86719616977221        3.70099998561809       -1.00796658549320
H           -6.40144351646655        3.09468487928116        1.66386451262564
H           -8.12814786423790        3.13814553293725        1.30654528159786
H           -7.35517341460113        1.60729762534769        1.69765054699123
H           -6.66913349890839        3.57209502530228       -2.06947686326363
H           -7.81323171123851        4.22520866289499       -0.89817396326691
H           -6.07951039753354        4.32159701960459       -0.58521177267030
N           -7.76311627914853       -0.57117780152158       -0.21000780293077
H           -9.10859250538640        0.42687081014574        0.53424000908999
C           -8.79726720413294       -1.40335762875551       -0.78508350100054
H           -8.66185658703250       -1.53459427379562       -1.86604809572380
C           -8.84800424841794       -2.78517224995371       -0.12321368169009
C          -10.14085982791594       -0.70228370622588       -0.53706974296776
H           -8.93663373398185       -2.67637513160146        0.95588927688367
H           -9.70923134295295       -3.33054964617402       -0.49868841271054
H           -7.94075055511061       -3.33873915542651       -0.35089743128802
O          -10.05977300755716        0.32543728659307        0.29912699098611
O          -11.16910507384512       -1.06666959608925       -1.03639202062381
