42
 energy: -62.486133512117 gnorm: 0.000479433317 xtb: 6.7.1 (edcfbbe)
N           -2.01042264174671       -2.42680685659358        0.07476535055467
H           -1.23290573891228       -2.44800671534308        0.72145344754566
H           -1.77913455017185       -3.00361577285299       -0.72348214417703
H           -3.72031834867714       -2.51671255228574        0.73406946830420
C           -2.34933844667696       -1.06182035844091       -0.33921033112074
H           -1.64582314356372       -0.32893716725830        0.06929110509296
C           -2.39216768250609       -0.91783622655965       -1.85868520203526
C           -3.74013855003741       -0.73695960280414        0.20985301762894
H           -3.10732846284116       -1.62204294277394       -2.27833201738352
H           -2.71283653341646        0.08782831140849       -2.11000996372050
H           -1.40964480195274       -1.10091573444425       -2.28998045587085
O           -4.35434530375992       -1.76392204196550        0.80687174012322
N           -4.14631231087006        0.44767185696379        0.10217553463451
H           -7.59412697889257        0.74502671502535        1.59947641308069
C           -5.48198403453702        0.88670010967022        0.41378120427973
H           -5.50160836570673        1.19448434620508        1.47130999210758
C           -5.73819635557342        2.11260561583174       -0.48873887935412
C           -6.56694984855358       -0.14038984343604        0.19421359915085
H           -4.86435199192979        2.75876286017909       -0.39571895985858
H           -5.76978254943549        1.74393321369212       -1.51523900900834
C           -7.00694318969827        2.91950823923138       -0.19619359245727
O           -7.70230859767599        0.01834349108454        0.97431357494036
H           -7.87545597551859        2.25141143784034       -0.19595918372878
C           -6.92641271492350        3.64256944781207        1.14827981051724
C           -7.21791266624220        3.94192738459394       -1.31243395056094
H           -6.09465130946765        4.34358957246652        1.14427438967917
H           -7.84214803597054        4.20016180394516        1.33293734770112
H           -6.77944603624038        2.95508236620787        1.97939461686870
H           -7.33566883539474        3.44236931550404       -2.27063860907908
H           -8.11026274704803        4.53419662978369       -1.12339643296355
H           -6.36537508448305        4.61433439558065       -1.37671262928364
N           -6.41209677486575       -1.04982781931260       -0.64600513050938
H           -8.89034574183801       -0.41802338408583       -0.30996418983136
C           -7.31888837367860       -2.12182210598462       -0.95888367461917
H           -6.75946100521844       -2.78708087588886       -1.62724016871013
C           -7.78759432863228       -2.91968311671697        0.26543772553038
C           -8.54966220730910       -1.64776763045570       -1.74433280303757
H           -8.43234397561083       -2.32300062758720        0.90720224415150
H           -8.33259460600724       -3.80162930781342       -0.06183247753165
H           -6.91722808834424       -3.22684958379206        0.84078255928075
O           -9.27029293223354       -0.68548936738164       -1.16876351388860
O           -8.86138135820481       -2.12339356587907       -2.79919428006262
