42
 energy: -62.486133516762 gnorm: 0.000479480456 xtb: 6.7.1 (edcfbbe)
N           -1.47300511233192       -2.14479948538519       -0.10010708973919
H           -1.46082641022447       -2.45625869666687        0.86560316728072
H           -0.53704517422893       -2.25170789058737       -0.47256522214054
H           -3.27972746535445       -2.52227681366436       -0.73578982868076
C           -1.91430853345936       -0.75467744467395       -0.19674681684441
H           -1.51920151493692       -0.10361923164373        0.59525690524748
C           -1.52016521077516       -0.18146737560719       -1.55820441743059
C           -3.43362753240606       -0.75741934116882       -0.10446491516922
H           -1.91397809834639       -0.80744323198876       -2.35613075822390
H           -1.92518960730448        0.82045980434179       -1.66210283860878
H           -0.43700146987579       -0.13609417177957       -1.65034522696818
O           -4.00695557127691       -1.90135202745899       -0.52830969146017
N           -4.01022619320006        0.28257538905976        0.29436682171866
H           -5.15722111732803       -1.64222067178531        1.50185441313071
C           -5.43092999114869        0.52126758839591        0.38519372840464
H           -5.56956912327564        0.97486204929853        1.37939331395675
C           -5.79662479775135        1.56659265387385       -0.68206635162297
C           -6.35271147825722       -0.68205049923612        0.34759181032400
H           -4.92639154172901        2.21150059310264       -0.81819759586368
H           -5.97730075881503        1.03874855589343       -1.61914282505112
C           -7.01207782536257        2.42946400401307       -0.32277017163784
O           -6.05681126271395       -1.71679540263480        1.16281935796432
H           -7.78785633493032        1.78093286085677        0.09336844059201
C           -6.64901692000028        3.49032589716537        0.71438011106620
C           -7.55836791607035        3.10366422092369       -1.58016891273265
H           -5.90368427792685        4.17325806870130        0.31193138630952
H           -7.52915899409457        4.06733869598841        0.98843373874311
H           -6.24588969590130        3.04061690153344        1.61830615128916
H           -7.87987126849707        2.36683135054296       -2.31188960907949
H           -8.41127763412280        3.73116965752573       -1.33325666152729
H           -6.79378981269768        3.73031852885992       -2.03487362636033
N           -7.44085687037603       -0.61247649143431       -0.28182303107465
H           -8.39764424753478        0.13225282927922       -1.61309349364524
C           -8.40496088212775       -1.68797647324466       -0.27164749102962
H           -7.92201391177026       -2.66864644149001       -0.36760146903355
C           -9.25474810728708       -1.67960279810808        1.00369965323528
C           -9.33303618831386       -1.47213418254861       -1.47711976365863
H           -9.70141162629798       -0.69754808118313        1.14716522728560
H          -10.04491929818108       -2.41925447732305        0.91091129032831
H           -8.63472760402600       -1.91743770334405        1.86424357011377
O           -9.14204466655551       -0.30950961879170       -2.08867602009553
O          -10.16001920640423       -2.27143698334181       -1.81849029776745
