42
 energy: -62.486133488211 gnorm: 0.000484376286 xtb: 6.7.1 (edcfbbe)
N           -1.50744355905497       -1.33693601718928       -0.63347368651600
H           -1.11495144772164       -1.60350809195971       -1.52809236406892
H           -1.67657734583179       -2.18897521848317       -0.10632273431991
H           -1.10665045189517       -0.09642434448738        0.62235459094285
C           -2.76308643984500       -0.59856743318256       -0.80527086982635
H           -2.59662013407419        0.13376974420585       -1.60932102800452
C           -3.91265282529002       -1.51346627944398       -1.21730167816626
C           -2.93175672803174        0.29383955813838        0.45643799267891
H           -4.15728561053123       -2.21903413205110       -0.42559772067964
H           -4.80155703291764       -0.94847507178890       -1.47667202046354
H           -3.61352752278588       -2.08273971495484       -2.09764487967985
O           -1.76742763564171        0.46366735247871        1.09144145405452
N           -3.87649230497894        1.02208006118846        0.85850492638223
H           -4.57628159284340       -0.83922391973832        1.96356103280980
C           -5.29559644032612        1.00493888077837        0.64995725824157
H           -5.70666935090966        1.51942436808866        1.53305090472340
C           -5.69518454341499        1.81032458950986       -0.60065155679012
C           -5.89326975958398       -0.38515371958763        0.65769245183839
H           -4.97756327127415        2.62593671891796       -0.70978887533844
H           -5.60547576460375        1.16572998115693       -1.47647830691671
C           -7.11262152848729        2.39256353165147       -0.53240961204108
O           -5.32768032372286       -1.26026450405576        1.51940663698630
H           -7.77588308740616        1.63567056473514       -0.10454705157276
C           -7.15337426489254        3.63816630379310        0.34970885694660
C           -7.60194048234652        2.73769410225379       -1.93795849340400
H           -6.52326133743634        4.41965545889727       -0.07026490657032
H           -8.16993057247212        4.01893421344671        0.41881985033242
H           -6.80279318087344        3.42278471748147        1.35595991131291
H           -7.62283225885953        1.85645350312432       -2.57463072932515
H           -8.60624667587919        3.15232027244943       -1.89895232385317
H           -6.94609515178821        3.47581624978251       -2.39435110962532
N           -6.91696753382141       -0.64568642325192       -0.02521617723215
H           -7.88592500850281       -0.32192812837578       -1.56861636542857
C           -7.54593589272805       -1.94498097651232       -0.01350625576921
H           -6.84699750143578       -2.75652406252721        0.22228100338520
C           -8.70593856387676       -1.97243308507807        0.98783579202788
C           -8.12690963207241       -2.17097947460694       -1.41674749966311
H           -9.39574617275085       -1.15653323781426        0.78135762098189
H           -9.23472094809467       -2.91760344628127        0.90226941305257
H           -8.32306155841571       -1.86361892494001        1.99974458774994
O           -8.25899992729063       -1.04918714048541       -2.11728998399519
O           -8.44625986445172       -3.24954729722400       -1.83040488429339
