42
 energy: -62.486133515370 gnorm: 0.000479010811 xtb: 6.7.1 (edcfbbe)
N           -1.05128748122091       -1.42541552918668        0.14021353089409
H           -0.61457897131562       -0.83988573182104        0.84455567691203
H           -0.31561252465808       -1.84791544384115       -0.41313456555372
H           -2.66441121566226       -2.02661940165400        0.95790544866663
C           -1.95123246038732       -0.64054265949496       -0.70445171226382
H           -1.57835318864288        0.36461162764697       -0.94070042257526
C           -2.22918404308986       -1.39109788999597       -2.00743818845587
C           -3.26741429259961       -0.50063808167341        0.04390251611304
H           -2.60685231844064       -2.38870535001814       -1.79278686076306
H           -2.97119760829302       -0.85012543186833       -2.58666792796760
H           -1.31796962304858       -1.48024361203550       -2.59520629672032
O           -3.48137476989618       -1.48284126292139        0.95311294696714
N           -4.00904955999914        0.47191266263540       -0.21566591503128
H           -5.19040998919659       -1.21126377922265        1.83644934730587
C           -5.33813446430274        0.74325039422682        0.29032755347811
H           -5.22613541714073        1.15524463033059        1.30645541344971
C           -5.92966818960905        1.81853975281199       -0.62861124817723
C           -6.24153828235431       -0.47082799154944        0.41190154950154
H           -5.16988051454344        2.59292332240570       -0.74286713656094
H           -6.08960494791840        1.36396465005282       -1.60602603651095
C           -7.23450054975201        2.44761263927610       -0.13153705345354
O           -6.08280227732334       -1.29063223857412        1.46648408805909
H           -7.93397258989125        1.64656328551051        0.12439821652552
C           -7.00887968813306        3.31462465276338        1.10566086957684
C           -7.84984476572060        3.28861618148880       -1.24877072765099
H           -6.27424922554995        4.08990406927238        0.89754892711954
H           -7.93826235777096        3.79525894596569        1.40255366315048
H           -6.65736536269744        2.72298974621332        1.94738558990052
H           -8.06135861463788        2.67592336841689       -2.12158268078517
H           -8.78068617987083        3.74205576691474       -0.91631299758421
H           -7.16800575699441        4.08366223210223       -1.54310466828304
N           -7.14898241550321       -0.64048086668741       -0.44649343299506
H           -7.87084173925034       -0.23813660579051       -2.04689577188271
C           -8.05905308015712       -1.75910773074882       -0.39315280512940
H           -7.54924551229668       -2.69544504460474       -0.13266657935951
C           -9.18975617815219       -1.51686419869891        0.61374391700138
C           -8.68321822114907       -1.89241216402739       -1.79019233801420
H           -9.69229612747574       -0.57753861269404        0.39044186266002
H           -9.90885578713230       -2.32854560148806        0.54872784713140
H           -8.78312457702175       -1.47222945875947        1.62099743504106
O           -8.45708577077660       -0.83938615149610       -2.56651991777829
O           -9.32991462741942       -2.84278302673022       -2.13304586189410
