42
 energy: -62.486133499223 gnorm: 0.000481863654 xtb: 6.7.1 (edcfbbe)
N           -2.43303844584837       -1.62501751758307        1.76326022807810
H           -2.67767626730807       -1.32388252595412        2.70094230030521
H           -1.44651168866900       -1.85525357001024        1.75439687488921
H           -4.07197575132022       -2.36989161525230        1.13612664039665
C           -2.73579764427248       -0.58105992685687        0.78751985810740
H           -2.44147641094678        0.42820986159606        1.10607200066866
C           -2.05094102201913       -0.90907271634573       -0.53934228344246
C           -4.24943555604305       -0.59639448537253        0.56704846545691
H           -2.34423540924326       -1.90118626723810       -0.87533661902940
H           -2.34234512631881       -0.18124698530542       -1.29022957902001
H           -0.96905007588024       -0.88402288024163       -0.42557047259574
O           -4.79019364475294       -1.80882360302080        0.76774048122006
N           -4.77385273506428        0.48016692448522        0.21041657099508
H           -8.21447882188093        1.31759499495012       -1.22783653071001
C           -6.10247578804216        0.90685508776941       -0.11605276961635
H           -6.41719748225180        1.51543487451801        0.74852047938731
C           -5.95323017664126        1.84889308753551       -1.34012514197367
C           -7.23870717913220       -0.08453741713072       -0.32076630440801
H           -4.88304479509835        1.97547642182008       -1.50943784650141
H           -6.35847301063865        1.36320074950437       -2.23202008675165
C           -6.57889198401571        3.24028497008317       -1.15569518818257
O           -8.32994224939890        0.39409201315094       -0.97460740209890
H           -7.56880650966066        3.15050952900313       -0.68708624908904
C           -5.70625006795461        4.09851775833121       -0.24269543152252
C           -6.75298834543845        3.92338563699203       -2.51126817983029
H           -4.74592178805497        4.28978617938888       -0.71555423653599
H           -6.18712535036670        5.05281221170324       -0.04009729966630
H           -5.52285443123913        3.59634765195413        0.70361818682803
H           -7.41613142531622        3.35208062404447       -3.15826699207976
H           -7.17493393730444        4.91757622340780       -2.38456660092628
H           -5.79090958193118        4.02108994779694       -3.00889634100996
N           -7.20913644819091       -1.24695183264631        0.14787475275959
H           -6.45169041566662       -2.54349383487875        1.31049605265504
C           -8.32245285166372       -2.15379652429981        0.01653276255451
H           -9.29027469462235       -1.64060718527707        0.08739857097274
C           -8.25811469017463       -2.91369729576282       -1.31345683598911
C           -8.21775459287431       -3.17904367843023        1.15334490125405
H           -7.28697905675780       -3.39326692642653       -1.41795984594281
H           -9.03707155666102       -3.67086612090398       -1.33447936431712
H           -8.40344809828710       -2.22357075751773       -2.14117168203639
O           -7.02640301819702       -3.23093494054653        1.72773563777483
O           -9.13397308836698       -3.88772268761985        1.47241005740118
