42
 energy: -62.486132358871 gnorm: 0.000609142934 xtb: 6.7.1 (edcfbbe)
N           -2.33446185756617       -2.19407611326450        1.22193806665360
H           -2.55409161784713       -2.20309147558978        2.21256212326608
H           -1.37638636733364       -2.50274741680778        1.10925698049867
H           -4.02074695417761       -2.54166103175366        0.46605040126966
C           -2.52582781363277       -0.86062862154949        0.65709015978355
H           -2.16362896618109       -0.04778412531524        1.30096783564842
C           -1.82765416446271       -0.77126381656892       -0.69990916202115
C           -4.02941884257896       -0.67279359964953        0.44454449253170
H           -2.17986143958748       -1.56626696121328       -1.35337721667011
H           -2.04798832175112        0.18774830023079       -1.15815003562845
H           -0.75027686619258       -0.86656922860570       -0.58091970517348
O           -4.68274584635035       -1.83506366586919        0.28716690094999
N           -4.44207190856003        0.50377523490508        0.35751186744544
H           -7.90570864684398        2.05118034317293        0.45513200691305
C           -5.73264394719003        1.09733142983583        0.16564441033127
H           -5.73920439173226        1.95849842605629        0.84968683243875
C           -5.68822487940017        1.60722856797631       -1.30381188765121
C           -7.01879087434023        0.33097708466914        0.39085895515454
H           -4.68286593354307        2.00836188715978       -1.45170674356588
H           -5.78937191789356        0.72726105791686       -1.94351251529945
C           -6.70239445869084        2.66796752808731       -1.74462708183420
O           -8.13069899282959        1.11402925676691        0.48454960678534
H           -7.72119604434531        2.28646057847158       -1.61933759982446
C           -6.54331946544267        3.97470799322076       -0.96768880572852
C           -6.50273781959391        2.93979668405637       -3.23664339439205
H           -5.54382532673334        4.37702155418327       -1.11837328214728
H           -7.26389337488682        4.71057713360661       -1.31810043372007
H           -6.69198060280290        3.84567113320324        0.10302799550813
H           -6.64453580070354        2.03063976985279       -3.81593412023171
H           -7.21615555030816        3.68247586540136       -3.58590001344380
H           -5.49855077161816        3.31353652718205       -3.42438009041288
N           -7.07850917820156       -0.91051349546113        0.55708461657809
H           -6.25070594029643       -2.55658619313197        1.01865951347488
C           -8.33255127365439       -1.57759141744496        0.80877134787460
H           -9.01508775853744       -0.96979650638691        1.41716455149108
C           -9.02938079102361       -1.94020626885109       -0.50790465707949
C           -8.02733931628766       -2.88025192617278        1.55845158643357
H           -8.35054605784689       -2.50833551087262       -1.14075179973429
H           -9.90997894733737       -2.54044306325703       -0.29639205954523
H           -9.32720558827295       -1.03434354358811       -1.03066635712046
O           -6.75726839348956       -3.25012053020022        1.50951637905586
O           -8.87635826601926       -3.51713749637616        2.12138549372632
