42
 energy: -62.486133513810 gnorm: 0.000479299311 xtb: 6.7.1 (edcfbbe)
N           -2.20830399895507       -1.73689112541821        1.42654730044147
H           -1.24130238534742       -2.03433441253965        1.45534572777087
H           -2.78756025317280       -2.56622482684549        1.52741851167711
H           -3.41520864552271       -0.48129922780375        2.21384500478840
C           -2.51647353925202       -1.06584239293835        0.16489591389499
H           -1.69970395783743       -0.36310274381645       -0.04390433874520
C           -2.69053113590066       -2.00460810072807       -1.02812697249702
C           -3.77101139349139       -0.23244352047581        0.39113513302025
H           -3.49133323099304       -2.71422136670366       -0.83025594109617
H           -2.95583896412437       -1.42542579742218       -1.90584978639269
H           -1.77004673232964       -2.55240449743252       -1.22000738781056
O           -4.08263779273384       -0.00826382574828        1.67557595376209
N           -4.41452863528671        0.19767419431857       -0.60148720744236
H           -6.62338013357611        0.29443778022985       -2.51636814829272
C           -5.61924771862043        0.98730308223868       -0.40256216406251
H           -5.69463193122696        1.33692719477768        0.63325368733867
C           -5.60824048595515        2.17258412755005       -1.37058613103284
C           -6.74114455231861       -0.00111038955141       -0.63550729985684
H           -4.79374101889358        2.83410172434644       -1.06817952939958
H           -5.35824755451099        1.81660552585142       -2.37527952711635
C           -6.91931097148060        2.96867699244930       -1.40193289776892
O           -7.13767107444828       -0.24066294006688       -1.89814825546554
H           -7.74759970992972        2.29715418626032       -1.65553252921179
C           -7.22090524732085        3.60128189947735       -0.04519949596609
C           -6.83146218899038        4.04996263188385       -2.47834367607346
H           -6.38536470312680        4.21640677862535        0.28176345180622
H           -8.10394898734100        4.23227951181362       -0.11486883316228
H           -7.40898705771751        2.84046357782703        0.70751183670782
H           -6.64056448674458        3.61341793639068       -3.45667582458740
H           -7.76190617448605        4.60986187430623       -2.53133558507667
H           -6.02617449137494        4.74495327982918       -2.25042787739685
N           -7.17022630950518       -0.64098571618787        0.36058769595928
H           -7.19405224905976       -0.88481388071512        2.14443487080373
C           -8.14410977767251       -1.70236862695044        0.25371107701569
H           -9.03435278945251       -1.37996047669099       -0.30059162055136
C           -7.56955360305284       -2.95443976521308       -0.41867679994070
C           -8.55995803245016       -2.07010129175899        1.68752451882434
H           -6.66105480466026       -3.26392756743598        0.09483575256902
H           -8.29978082188802       -3.75679891157203       -0.36373259418891
H           -7.33554674911095       -2.74574389735607       -1.45914069703102
O           -7.82560797833496       -1.47758711430314        2.61979868416059
O           -9.44493898479036       -2.84255568912186        1.93347112827478
