42
 energy: -62.486133513922 gnorm: 0.000479560411 xtb: 6.7.1 (edcfbbe)
N           -0.88628251491939       -0.98780328187259        0.05640925943836
H            0.00933419548858       -1.03629036040214       -0.41412463343084
H           -1.07150613032120       -1.90548379274338        0.45266051833461
H           -1.82752600552134        0.13343921287454        1.29197695839484
C           -1.95000352032236       -0.62723275169123       -0.88065620804864
H           -1.57960447555786        0.20479734145352       -1.49247596946741
C           -2.40925294181592       -1.75878033601542       -1.79678213585358
C           -3.10875562657015       -0.07667154067216       -0.06294745249488
H           -2.74175840881490       -2.60955515777055       -1.20516284266307
H           -3.24407295700250       -1.41506579888615       -2.39772025983577
H           -1.59757669821237       -2.07561305463999       -2.44843195424419
O           -2.78228668246123        0.32178153313938        1.18632661987998
N           -4.25633236051606       -0.02158712787806       -0.56922108370115
H           -5.32187844066853       -1.10792240141781        1.85006227361446
C           -5.37193204607831        0.57188166190997        0.14158343593391
H           -5.07028248547485        0.95561067793733        1.12861717951504
C           -5.92558006606878        1.70749711218811       -0.72441059476493
C           -6.36006933937082       -0.55511977326425        0.33135343211960
H           -5.12957598245125        2.44342327919179       -0.85715945320180
H           -6.15724677783080        1.28343295044103       -1.70114905764998
C           -7.16776238534366        2.39678954351132       -0.15218199301162
O           -6.12509111310327       -1.37315072066888        1.38375711136589
H           -7.92049850203605        1.63255503694981        0.06163411537956
C           -6.85524073809110        3.15350597268644        1.13721410862640
C           -7.73587918583458        3.35784436739979       -1.19499198023439
H           -6.06668636607137        3.88427585640761        0.96830299105050
H           -7.73995959908411        3.68078731262577        1.48706656040907
H           -6.53638745352142        2.47778253573245        1.92684597657247
H           -7.99949235846571        2.82578047360432       -2.10555327610962
H           -8.62868810520194        3.84844920296236       -0.81464270768608
H           -7.00416031822575        4.12389506278402       -1.44323243407363
N           -7.29418226275279       -0.74056800827242       -0.48743098804138
H           -7.98924779007470       -0.42750589120947       -2.12113592485580
C           -8.21886396249793       -1.84334476744332       -0.37019634192809
H           -7.71022269151629       -2.78105917248095       -0.11306309417174
C           -9.29859399608140       -1.56093883816678        0.68005431087885
C           -8.90173302688615       -2.00527332609682       -1.73752527983362
H           -9.79386795025710       -0.61714808732901        0.45935704490299
H          -10.03427055225480       -2.35994296836580        0.66245616271427
H           -8.84909947204488       -1.50386449317734        1.66831605607297
O           -8.62631041467041       -1.02226825616161       -2.58456502058984
O           -9.62776374530059       -2.92336503971219       -2.00029831891570
