42
 energy: -62.486133504658 gnorm: 0.000481349575 xtb: 6.7.1 (edcfbbe)
N           -1.29563324870818       -0.26398322038349       -1.84727306914368
H           -0.59249099340833       -0.84714543498062       -2.28411495773027
H           -0.81248266410489        0.43225147146016       -1.28585976970200
H           -2.87499489907468        0.69854452509660       -2.31398486996369
C           -2.18593356116132       -1.05428671818469       -0.99995428292696
H           -2.47665696057238       -1.94450127283764       -1.57271021769414
C           -1.57259133265862       -1.48856412801637        0.32956486301048
C           -3.46103296986610       -0.23562128799666       -0.79999570010040
H           -1.27630936233861       -0.61523203897368        0.90765366537924
H           -2.30156209090141       -2.04733677450800        0.90625705691878
H           -0.69804433003147       -2.11312539266220        0.15708022833098
O           -3.66057347335948        0.70658916075616       -1.72804755694319
N           -4.20393711436542       -0.52007779127843        0.17356473817224
H           -5.37339578348325       -2.23140327811826        0.77988086512228
C           -5.48928590191578        0.08871264502498        0.47118837605239
H           -5.53697092048013        0.10385207859408        1.57081067996514
C           -5.75864274622623        1.49479996440656       -0.06670746876447
C           -6.50564040564228       -0.93222634534503       -0.00060502875041
H           -4.86773844025460        2.10385818728137        0.09785124414034
H           -5.92520316334327        1.42844197088869       -1.14122623182287
C           -6.96152975936761        2.17173302673759        0.60297884216966
O           -6.25687875172352       -2.20091034223636        0.38162432129569
H           -7.76799564415466        1.43804087800408        0.69164475987639
C           -6.60828983238535        2.68525670139450        1.99783357689018
C           -7.45029921217525        3.33151906893375       -0.26297979826549
H           -5.82544998991234        3.43886738120997        1.93627071334806
H           -7.47995647866504        3.13717668229025        2.46571240090923
H           -6.25998388268498        1.88205433230447        2.64279198125319
H           -7.76040685651219        2.98202025437851       -1.24455953898137
H           -8.29796096669112        3.82553826310394        0.20623196286514
H           -6.65701528640627        4.06463338070678       -0.39396661412254
N           -7.46805193078502       -0.59443258934415       -0.73474555626282
H           -8.27509347386018        0.64951375573424       -1.76161195293538
C           -8.43174037790574       -1.54562879772182       -1.23651990666266
H           -7.94936387638898       -2.45230770566886       -1.62334863920117
C           -9.44574078639520       -1.94697951955593       -0.15944063960331
C           -9.18784245103829       -0.85228415120325       -2.38068348008270
H           -9.91034872694119       -1.05821598558991        0.26342228979246
H          -10.21423411964251       -2.57244686842329       -0.60467535866660
H           -8.94416980539145       -2.49716982402406        0.63277260459734
O           -8.94691499966453        0.45042086327015       -2.45732434649321
O           -9.93780369252460       -1.43197090332635       -3.11586510902740
