42
 energy: -62.486133511990 gnorm: 0.000480258378 xtb: 6.7.1 (edcfbbe)
N           -1.10771828333033       -1.47359306908591        0.14015556529044
H           -0.64307157819552       -0.87454348319242        0.81450640749934
H           -0.39342251524774       -1.94308998170660       -0.40371055309769
H           -2.74041179722777       -1.98747710931723        1.00023306340622
C           -1.99095513954207       -0.69370992677591       -0.72621854644923
H           -1.58709818413550        0.28743260184992       -1.00868750772663
C           -2.31082642166963       -1.48715752754715       -1.99347859707727
C           -3.29082416864070       -0.47685282471909        0.03142505833604
H           -2.72312086279878       -2.45995048904021       -1.73365000205765
H           -3.03833690205124       -0.94317149283901       -2.58798241021616
H           -1.40990422889506       -1.63497581093724       -2.58525948806564
O           -3.53198809173482       -1.40865277788669        0.98205958095303
N           -4.00539906094573        0.50769796748595       -0.26266138562486
H           -5.23620804414031       -0.95209949759184        2.01970159402270
C           -5.31555022453041        0.82102399591762        0.27087118194526
H           -5.16729128326603        1.28316507553904        1.25995785763936
C           -5.92749660413912        1.85242318759357       -0.68431054153134
C           -6.21803075679528       -0.38150542626837        0.47294913511575
H           -5.18567550844768        2.64074875330142       -0.81960987018592
H           -6.07075585197328        1.36254203205648       -1.64717952848437
C           -7.25134485623526        2.46438121569828       -0.21813564986989
O           -6.10486774608546       -1.08661622045470        1.61467633349962
H           -7.94902411070135        1.65403647236797        0.01232018051575
C           -7.07213925194619        3.32560335600882        1.03056046638888
C           -7.84343267659466        3.30504073210608       -1.34814933128811
H           -6.33361572643715        4.10462707811981        0.85270648017822
H           -8.01338572848794        3.80127999852118        1.29656796346196
H           -6.74959642256457        2.73011004973191        1.88097436295229
H           -8.01335898429759        2.69622777802022       -2.23264963366843
H           -8.79324324109666        3.73858426784444       -1.04408399510107
H           -7.16646492840008        4.11472462553198       -1.61237864629458
N           -7.07857439229242       -0.65207927885317       -0.40709206436831
H           -7.70634904017191       -0.44065805435988       -2.08114196733129
C           -7.98375435530201       -1.76878814628661       -0.27842298967215
H           -7.47896529272766       -2.66840411596127        0.09641794143253
C           -9.15541465432106       -1.43718236393546        0.65319275958528
C           -8.54679162143868       -2.05174530168998       -1.67912509893619
H           -9.65549874173873       -0.53167487380778        0.31449027779926
H           -9.86554521789311       -2.25913860861804        0.64483597964927
H           -8.78921414346892       -1.28407143726701        1.66528124753623
O           -8.27183374147105       -1.09508611228669       -2.55761271124317
O           -9.18969088098540       -3.02945115665872       -1.94340769090816
