42
 energy: -62.486133508786 gnorm: 0.000480367465 xtb: 6.7.1 (edcfbbe)
N           -2.22383776076520       -2.52094770022157       -0.19650847686036
H           -1.27198832752379       -2.86706634178722       -0.20027278159861
H           -2.68294858988649       -2.88398796654165       -1.02771575876375
H           -3.76946120167662       -2.34113600194686        0.93031756249896
C           -2.24476402834311       -1.05834309236171       -0.22839976040208
H           -1.56319560561966       -0.70722977330030        0.55757199725071
C           -1.83602969623551       -0.44377667670417       -1.56402914820486
C           -3.64863502729392       -0.62604534277968        0.17084462605054
H           -2.49119720204009       -0.80300330763520       -2.35415774183976
H           -1.93260376368472        0.63452370499693       -1.50767506989494
H           -0.80763850842478       -0.70546784477813       -1.80575653718708
O           -4.32179368274772       -1.53320295536617        0.90799507513973
N           -4.05860348098616        0.51398532872030       -0.15159266332262
H           -6.17833077119566        0.26453261565238        2.34302836101698
C           -5.38265318803177        1.01337495847173        0.13816585102831
H           -5.28467225817872        1.67246910494099        1.01401819835384
C           -5.82453558299486        1.84545877271717       -1.07372590531187
C           -6.40614228262334       -0.06106134530254        0.43667406643102
H           -5.01105954151371        2.52810013323724       -1.32129276241089
H           -5.95735026714624        1.14946549970260       -1.90138776157788
C           -7.12248402293424        2.62832567491658       -0.85586634049692
O           -6.78432919384819       -0.20332071264104        1.75693978755486
H           -7.88545101205774        1.94342827533414       -0.47015472731143
C           -6.93942262746114        3.77443098000597        0.13727443940144
C           -7.61117952949299        3.17702847221057       -2.19472717448114
H           -6.15862335931450        4.45020441647854       -0.20568504975375
H           -7.86399011933936        4.33906382156976        0.23251855391524
H           -6.66916925708702        3.41118430137617        1.12597941210867
H           -7.79299094648814        2.36531413766995       -2.89408290295146
H           -8.53805674821188        3.73050061165717       -2.06493264939285
H           -6.86777876964150        3.84518609862900       -2.62447871298751
N           -6.87329524894689       -0.73176166426454       -0.51005463170183
H           -8.55563698761907       -0.42570979388200        1.41780602131038
C           -7.83864731146401       -1.79655741352131       -0.43030923975313
H           -7.85788835831659       -2.24460893868926       -1.43091801267992
C           -7.51543509076558       -2.88545054323955        0.60187678890926
C           -9.25560975100730       -1.26876852742161       -0.16120211369316
H           -7.56666574105854       -2.50093665883045        1.61776550336523
H           -8.22185247439383       -3.70502107750108        0.49604045948344
H           -6.50842319350877       -3.25620546629403        0.42734961192599
O           -9.39832953320898       -0.52687402214786        0.93710556540834
O          -10.18349119075632       -1.52211936809722       -0.87541083396575
