42
 energy: -62.486133516171 gnorm: 0.000479373196 xtb: 6.7.1 (edcfbbe)
N           -1.54620673123617       -1.08985351604418       -0.70879453892601
H           -0.91436629586061       -1.88149075671798       -0.70862670382431
H           -1.06868034059496       -0.31863800003512       -0.24969424014916
H           -2.72047221996258       -0.17850858501851       -1.91984222892214
C           -2.77914311570987       -1.40554638867067        0.01357106281821
H           -3.13082771619294       -2.37807084960561       -0.35569653447877
C           -2.63830800077485       -1.46572426276467        1.53138251345546
C           -3.82434314233014       -0.38240605574386       -0.41490463894063
H           -2.25875568794423       -0.51883008883760        1.91041561709679
H           -3.61250854213628       -1.64387209272722        1.97342723818211
H           -1.95654824605324       -2.26338454837942        1.81949542952888
O           -3.59822784782002        0.15011957960844       -1.63527537794582
N           -4.79696621901466       -0.15651176030952        0.34344572115582
H           -6.68543044406466        0.68224836289716       -2.28731537436081
C           -5.89208993759764        0.74715157174260        0.05498599980233
H           -6.26444250277574        1.02798151317962        1.04817630924900
C           -5.55874215998079        2.02002603311536       -0.72951271479181
C           -6.96675328782231       -0.12561591040186       -0.57101373415649
H           -4.70864493724925        2.49614975563817       -0.23527411952685
H           -5.22443516735066        1.77460009175108       -1.74146863344858
C           -6.73156635043168        3.01150556018584       -0.78429330533545
O           -7.22569215570358       -0.01220780048440       -1.88759821745619
H           -7.66025651280445        2.46451777663233       -0.98615656627164
C           -6.89658433850620        3.74911281290253        0.54252253376937
C           -6.50846188339513        4.01847225343708       -1.91251807033610
H           -6.00034434271956        4.32229289513224        0.77094158555457
H           -7.73753907988502        4.43656766638961        0.48855569610240
H           -7.07996495314269        3.05532496364193        1.35871673872323
H           -6.45010992239700        3.52210149573644       -2.87951016711283
H           -7.32563385438649        4.73480118950510       -1.94897343189477
H           -5.58146201539485        4.56507355104110       -1.75209073958356
N           -7.50909783590917       -0.99577082617371        0.15921788058418
H           -7.82178769427731       -1.67372673767444        1.80232163718500
C           -8.47036390877726       -1.94580301291391       -0.34936807552123
H           -9.23692481683905       -1.46189966118952       -0.96775165092992
C           -7.79894219011428       -3.05323633350720       -1.16980388694516
C           -9.14797339030871       -2.59238185526061        0.86925679478841
H           -6.99882526360150       -3.50762607506736       -0.58866747308488
H           -8.53588790059547       -3.81155926101468       -1.41891800078337
H           -7.38227778611049       -2.63827947356526       -2.08394252279541
O           -8.55672824122184       -2.29674523987433        2.01908707056868
O          -10.10387428851194       -3.31238380807778        0.78042640077643
