42
 energy: -62.486133516280 gnorm: 0.000479452052 xtb: 6.7.1 (edcfbbe)
N           -1.68466830254385       -1.86263927722762        0.56406474850759
H           -1.22614864047611       -1.29595803288190        1.27051638978269
H           -0.98879615360162       -2.47990465660337        0.16213252007780
H           -3.52505873346251       -1.98348060866637        1.20301312628390
C           -2.27995142447568       -1.01601956106720       -0.47029270938905
H           -1.65383393523992       -0.16288434239634       -0.76460979566071
C           -2.59685969272788       -1.85564749681655       -1.70815305355661
C           -3.58879012866496       -0.48190828375476        0.07871607427503
H           -3.21499280458912       -2.70818690051566       -1.43448575688782
H           -3.13561679309458       -1.24802058977042       -2.42859501505637
H           -1.67868538255246       -2.21972794434324       -2.16454424987080
O           -4.15522156430761       -1.25448431740660        1.03004360997294
N           -4.05799556522538        0.59058992528539       -0.37188333062436
H           -6.16530729700818        0.17998638070729        2.18625683161077
C           -5.34911364517388        1.09888346823642        0.04484888153829
H           -5.20390069045295        1.64697984316919        0.98783556162334
C           -5.83219461741360        2.06307697571326       -1.04464466678526
C           -6.36361795241284       -0.00309832628068        0.26015605038783
H           -5.04175455687591        2.79526059251389       -1.21331272840229
H           -5.95406038898761        1.47299075623722       -1.95243580516254
C           -7.14934293347475        2.77448243727488       -0.72230832402855
O           -6.77864589798292       -0.22030742177950        1.55879708438989
H           -7.91042078758850        2.01949307387532       -0.49671583279982
C           -7.01868807410119        3.71492576618328        0.47464305610356
C           -7.60747558248507        3.55990216739910       -1.94955741785945
H           -6.21950792935803        4.43394821469254        0.30599432561189
H           -7.94662057199475        4.26246481184776        0.62313525202779
H           -6.80599840786972        3.17104060843974        1.39206749772905
H           -7.73912296366701        2.89486625811443       -2.79896080270815
H           -8.55461313320223        4.05685239270791       -1.75389680544812
H           -6.86976966320731        4.31518090698310       -2.21267425939560
N           -6.78757139236284       -0.63242543999883       -0.73362102811184
H           -8.52600922538155       -0.46334528405115        1.15995228445664
C           -7.72414769119221       -1.72505605772339       -0.73796256903495
H           -7.70942955394558       -2.11405162375261       -1.76298333168812
C           -7.38353534765665       -2.86200262158644        0.23573692452325
C           -9.16453220306807       -1.26469138208372       -0.46756182383838
H           -7.45241975292064       -2.53463568788100        1.27062044891886
H           -8.06947330268982       -3.69080278110672        0.07892794373354
H           -6.36703498496736       -3.20076672023014        0.04919913745029
O           -9.35445302168514       -0.57693112154360        0.65789044259436
O          -10.07081056427104       -1.52597404599725       -1.20641366804719
