42
 energy: -62.486133515791 gnorm: 0.000479335828 xtb: 6.7.1 (edcfbbe)
N           -1.32879882964395       -0.59613280944700        0.66312071544315
H           -0.48001457005635       -1.08379004242575        0.40328780630655
H           -1.52075035837787       -0.81668292741156        1.63673598461350
H           -2.13919714774384        1.14007308417255        0.56082975085747
C           -2.45296856169504       -1.02541225073372       -0.16867652130075
H           -2.10931463035003       -1.01323958414097       -1.21129282360527
C           -3.00449253296202       -2.40918781418079        0.16483748100173
C           -3.53311995447069        0.04241159582228       -0.05181573329457
H           -3.31044473325550       -2.44741275701226        1.20815160185663
H           -3.87550920751976       -2.60502667007172       -0.45062033101424
H           -2.25163130256041       -3.17427314521411       -0.01401543498102
O           -3.08878202651642        1.24900887636927        0.34810853012431
N           -4.72013079362747       -0.25911077344378       -0.32506317729240
H           -7.09695527705509        0.58098869800479       -2.39085523438504
C           -5.81716831108146        0.68736108045618       -0.26573635827879
H           -5.93436729212577        1.01468680433712        0.77532478505208
C           -5.61582341956308        1.91982092784795       -1.15665585287652
C           -7.03799540887120       -0.14516824289264       -0.61792564035160
H           -4.69250883207468        2.40640295219302       -0.83958070300089
H           -5.45794231646019        1.59858987946421       -2.19327346691052
C           -6.76026902220424        2.94101090729502       -1.07932543297773
O           -7.57086995873741       -0.06464644076046       -1.85168764231528
H           -7.72338909845013        2.43330345509996       -1.20747160868444
C           -6.77850299478954        3.64801027762777        0.27415057535891
C           -6.60355039981152        3.96829876170981       -2.20039440833160
H           -5.82350519734319        4.13424373136141        0.46107076843917
H           -7.55924821874148        4.40490715385876        0.29128697925074
H           -6.97348493079996        2.94661345098233        1.08112285541510
H           -6.62714191425780        3.49143364219876       -3.17865493204689
H           -7.40729928890054        4.69941492275832       -2.16074506513831
H           -5.65681964281119        4.49452190601697       -2.09901062465555
N           -7.45316709564419       -0.95719565757867        0.24991871836398
H           -7.43307747840597       -1.56625705497085        1.93715054318444
C           -8.53938221393969       -1.87583237652442       -0.00073251154110
H           -9.39610888464567       -1.38106362271361       -0.47500350214401
C           -8.09551121711126       -3.05121013968280       -0.87933007873940
C           -8.97467746110876       -2.43392031944441        1.36289905550075
H           -7.21719409802625       -3.52403138445437       -0.44464310468816
H           -8.90050552696010       -3.77808560684503       -0.94145853559303
H           -7.84885691619279       -2.69575128145544       -1.87620348967470
O           -8.13008581837140       -2.13732744672630        2.34294857629409
O           -9.96562836824838       -3.09236959348387        1.51816259663604
