42
 energy: -62.486133514017 gnorm: 0.000479556667 xtb: 6.7.1 (edcfbbe)
N           -1.36749007838932       -0.89722161255527        0.02526708007409
H           -0.76594527839926       -1.69920838033431       -0.11737778558737
H           -1.03728728273017       -0.41204477325913        0.85525595481326
H           -2.11831873801054        0.52440005103358       -0.96796115539170
C           -2.75756336882629       -1.31459244213937        0.21879460644061
H           -2.98598782897464       -2.05655055919869       -0.55640323922318
C           -3.05283896588287       -1.91608066408231        1.58929642209049
C           -3.64179504889235       -0.10330955651936       -0.07562952256141
H           -2.81124675743139       -1.19984981177563        2.37212874576261
H           -4.10647624086857       -2.15978800435608        1.65998890818782
H           -2.46509356740243       -2.81903899551193        1.74053123079640
O           -3.04016002514871        0.83282686012706       -0.83628293180604
N           -4.80316419059380       -0.09781819959771        0.39080694868257
H           -8.15685788115964        1.67177412837982        0.57044672058620
C           -5.84934600439545        0.87374910619192        0.21343399411611
H           -5.85702571633339        1.50949219608961        1.11069935436496
C           -5.71291498237629        1.74751748281148       -1.05462020995347
C           -7.14039774056341        0.07819131054256        0.18830819576764
H           -4.73757688882836        2.23248586720932       -1.01403454221905
H           -5.70710431997607        1.06802429075942       -1.91038632644006
C           -6.77220543330081        2.83126856353902       -1.28543137495582
O           -8.30640653608857        0.73641210754376        0.38723989126150
H           -7.76494750979297        2.37518841072050       -1.36525598796333
C           -6.77372823403178        3.87901054650400       -0.17151867053335
C           -6.48342972534385        3.51747928420925       -2.62152110508091
H           -5.79945264326832        4.36022602198047       -0.11457304375886
H           -7.51950265355499        4.64470148444990       -0.37508343467437
H           -6.99152773645376        3.45277157347005        0.80694800566497
H           -6.51343629355389        2.79845502282276       -3.43651259031489
H           -7.22151633132153        4.29128702942337       -2.82003404768937
H           -5.49788029048603        3.97751008957794       -2.60686313923589
N           -7.07812121385393       -1.16840724316673        0.05774083404168
H           -6.02835451600110       -2.57571180014333        0.19442379782771
C           -8.21929689137399       -2.04484304669175        0.07928420813772
H           -8.90721923646111       -1.80222202560164        0.90021538781054
C           -8.99776574128191       -2.01928664333435       -1.23944405771445
C           -7.66296368476941       -3.46314980381287        0.30653710941720
H           -8.32194322448470       -2.20452970240734       -2.07178126704285
H           -9.75882596404054       -2.79423179381211       -1.21979988049911
H           -9.47042853350941       -1.04960862005472       -1.37389699585704
O           -6.33789394798582       -3.51059679793846        0.32037484496960
O           -8.36475400326057       -4.42670663073433        0.44562393907139
