42
 energy: -62.486137885204 gnorm: 0.000458648383 xtb: 6.7.1 (edcfbbe)
N           -1.90048865848637       -0.62348652864915        1.51246604085751
H           -0.95930284683317       -0.97545270721482        1.38563074519070
H           -2.31863361836631       -1.14459930882815        2.27874714906275
H           -2.85669136967336        1.03331211325349        1.66607180822297
C           -2.69711125303711       -0.81509493999055        0.29973192566289
H           -2.09144423553161       -0.46240139541302       -0.54559809864554
C           -3.13475322301821       -2.25469579187936        0.04141727976013
C           -3.89313212812226        0.11976972984705        0.39895956031480
H           -3.67997728219696       -2.64351907825795        0.89847312992631
H           -3.79159820544414       -2.27892029324446       -0.82086724542898
H           -2.26954802572698       -2.88801548696763       -0.14373178625806
O           -3.72109176907348        1.16934308298391        1.22689821841303
N           -4.92817258778295       -0.12021771048496       -0.27056899821917
H           -8.35799060612590        1.41842620601763       -0.80817486258172
C           -6.06475752205393        0.76651397082101       -0.22781965104419
H           -6.08957236785789        1.33401390769014        0.71738242888813
C           -6.01969652666845        1.75724161146206       -1.41336288489363
C           -7.30607600265810       -0.09825940530372       -0.26745790899727
H           -4.99458025766544        1.78537852322674       -1.78714997643816
H           -6.63776292350261        1.37125824751136       -2.22858052616071
C           -6.44763088425367        3.18622639269247       -1.04527568891516
O           -8.48106132169677        0.48478965168161       -0.59481571647888
H           -7.31953656051420        3.15285047768354       -0.37743706708184
C           -5.31960805606226        3.90666751440180       -0.30955625431835
C           -6.83821833738807        3.96128888052165       -2.30270060940404
H           -4.47989175756464        4.06903576973418       -0.98192650375217
H           -5.65748818655821        4.87301076037917        0.05758047305861
H           -4.96819228975649        3.31940180100979        0.53497597896913
H           -7.67887023278904        3.49155052323435       -2.81016757657971
H           -7.11989452633753        4.98026392749154       -2.04784990324842
H           -6.00047674372906        4.00103537436280       -2.99518634135088
N           -7.19989671659881       -1.30593849451235        0.05725939430632
H           -6.12686544740334       -2.59578575632619        0.59942379872205
C           -8.29253136423147       -2.24285797514939        0.10417184201316
H           -9.13634914378586       -1.85837606313691        0.69111203290490
C           -8.79423624726864       -2.62897202221286       -1.29132743122871
C           -7.73920910733534       -3.50455545304828        0.79154448519994
H           -7.95989300554655       -2.96559987755770       -1.90334086059001
H           -9.51883420460920       -3.43347408761374       -1.20159391726309
H           -9.26192497598231       -1.77167561264769       -1.76854544913168
O           -6.42244141827000       -3.47690300704288        0.94844571104780
O           -8.43075936597024       -4.42460345854741        1.13167870129571
