42
 energy: -62.486133506460 gnorm: 0.000480884260 xtb: 6.7.1 (edcfbbe)
N           -1.84906317370849       -1.30965452631234       -0.53574336383435
H           -1.27946093431224       -2.14184068420389       -0.44448629339091
H           -1.27896672864730       -0.51672237042985       -0.25398484451279
H           -3.02504853356775       -0.50679933099930       -1.80265652342902
C           -3.03755987756803       -1.39271306406659        0.31427999437856
H           -3.46225013671099       -2.39644366836870        0.18889753313944
C           -2.78106093308680       -1.13960302654097        1.79711014311311
C           -4.06898634033455       -0.42095849173973       -0.24824725375952
H           -2.32901554146844       -0.15946100069977        1.93742269020031
H           -3.72475271540326       -1.16202769087490        2.33052555144698
H           -2.11590462498847       -1.89836906846768        2.20406714046139
O           -3.86746672866594       -0.08287911181326       -1.53579595222260
N           -5.02122891374369       -0.06397551678406        0.48651700239256
H           -7.76819568960423        1.20345849897306       -1.73087840399690
C           -6.09892980894488        0.80286642229874        0.06596034703284
H           -6.46492930399369        1.25016825496282        1.00232687450499
C           -5.72652944294943        1.93281877809704       -0.90795673334478
C           -7.21660230748765       -0.10181442410630       -0.43174420393652
H           -4.69290549214913        2.21782995091594       -0.70352315185974
H           -5.74333111212893        1.55964145718661       -1.93585370730551
C           -6.60956018286185        3.18432572707534       -0.76117791119329
O           -8.03114706060524        0.32935374239125       -1.41537997023741
H           -7.65062770600537        2.89168214830125       -0.57186260769024
C           -6.14753405592030        4.03194151774814        0.42287336694694
C           -6.56499811822995        4.01375969457520       -2.04434113014720
H           -5.14092698842777        4.40604159301507        0.24846880638174
H           -6.80975527327196        4.88325729912957        0.56307753826577
H           -6.14164847257156        3.44974622075023        1.34119944734881
H           -6.94653064891121        3.45133629355738       -2.89497422990138
H           -7.16524798878973        4.91423897060214       -1.93674746286536
H           -5.54160580206964        4.30972855897292       -2.26418148598908
N           -7.34171066000689       -1.22408918237507        0.12044784439273
H           -6.77005995866577       -2.33549403906543        1.38680214050342
C           -8.34165861098541       -2.19753771154414       -0.23981540523547
H           -9.35326109763293       -1.77653635138263       -0.17256622583519
C           -8.13962239728722       -2.77320404473302       -1.64539099460325
C           -8.21914516733924       -3.34176471873857        0.78329742400546
H           -7.11654565475654       -3.12788655550386       -1.75513237308690
H           -8.82242099819037       -3.60581307112866       -1.78968305312199
H           -8.33324939511236       -2.01074082463084       -2.39505764199960
O           -7.19902433657598       -3.19793627092584        1.61753035263280
O           -8.96772238959572       -4.27995627299179        0.80531211429365
