42
 energy: -62.486133506580 gnorm: 0.000481103635 xtb: 6.7.1 (edcfbbe)
N           -1.90057552762330       -0.08208682336971        0.78746815863519
H           -1.15248338535710       -0.52408635422134        1.31157753427735
H           -2.49888692188639        0.41470971192455        1.43922585068177
H           -3.87355033740943       -1.36212265894605       -2.01044710854081
C           -2.69776811428568       -1.08784654640040        0.10738430096158
H           -2.13701668476446       -1.39527014253460       -0.78952553724077
C           -2.98978077433918       -2.33391927939885        0.96157239296022
C           -4.00857651629737       -0.45693981823360       -0.31494558781480
H           -3.57040047723478       -2.04749006506497        1.83486330106668
H           -3.54662084711456       -3.08013534368623        0.40142612354026
H           -2.05271021642989       -2.78023500649613        1.28981756828948
O           -4.47310302070093       -0.76195424860953       -1.54886935708441
N           -4.60163867595768        0.27275303942471        0.51748162407201
H           -8.16283978513333        1.64368751737271        0.25305872763448
C           -5.81411376621837        1.00575743890720        0.25148548826980
H           -5.93629177703619        1.66471149108190        1.12335125778806
C           -5.67384550381912        1.86196457344673       -1.02813358537320
C           -7.01988608029714        0.09497936688273        0.20488780895494
H           -4.66706328493334        2.28696156741060       -0.99477773409182
H           -5.71996427474730        1.19088683957281       -1.88721037912889
C           -6.67046002471203        3.00826664863349       -1.24225124884916
O           -8.23716124809535        0.68319748119318        0.19919222313430
H           -7.67512309442976        2.60372202062037       -1.41358940763240
C           -6.70738971501852        3.98780908890749       -0.06906420260102
C           -6.26964426462892        3.75774075268283       -2.51462771737624
H           -5.70713401135344        4.36386800456260        0.13429481986755
H           -7.34676608686589        4.83429354172774       -0.31079509252688
H           -7.08959062808087        3.53522874470876        0.84453691349920
H           -6.23663413562485        3.08077755308442       -3.36490567143883
H           -6.98448056272538        4.54764027904894       -2.73332367239550
H           -5.28657625242903        4.20769877104453       -2.39561527390236
N           -6.87281955154588       -1.15271237123855        0.25364077045861
H           -5.80549656182035       -2.53737250246316        0.44106976810495
C           -7.98491735025391       -2.07345788683370        0.23012623542314
H           -8.72533919915875       -1.82951683218251        1.00252102411144
C           -8.68405030552613       -2.10999587793249       -1.13306980765375
C           -7.40750414376494       -3.46886521037024        0.51699346345576
H           -7.95005606651089       -2.27621131448913       -1.91928948493811
H           -9.40626902677767       -2.92154307875850       -1.14148441276113
H           -9.19436764601429       -1.16838687528381       -1.31700260401049
O           -6.08037590119177       -3.48226688358789        0.55820387254703
O           -8.08691947469224       -4.44626515535981        0.66368386415185
