42
 energy: -62.486133510778 gnorm: 0.000479700943 xtb: 6.7.1 (edcfbbe)
N           -2.27289008557917       -1.56802924881643        1.64340098590130
H           -2.24995997497917       -0.98900703245228        2.47660394440207
H           -1.35306054515334       -1.97319032129320        1.51662590493787
H           -4.09697071595609       -2.13844239027698        1.58364993532214
C           -2.66314835276892       -0.78165067924300        0.47570800853981
H           -2.18418488360770        0.20558028663735        0.42048020553683
C           -2.34561415566032       -1.56653379876079       -0.79771021479524
C           -4.17680344183470       -0.58120850452946        0.54827099619773
H           -2.82120415820818       -2.54432129625479       -0.76095062173938
H           -2.71635024674846       -1.02498666622211       -1.66271007313239
H           -1.27114885301539       -1.70403024268583       -0.90190563077908
O           -4.80343643058742       -1.56893588465471        1.20689615631214
N           -4.63357189968572        0.45477566524978        0.01793499965418
H           -8.01887204913906        1.25195186912737       -1.48564727613059
C           -5.96037045171027        0.96731207683491       -0.19002136832716
H           -6.18661848731975        1.58008206189108        0.69938039426203
C           -5.85243187578969        1.91368913350575       -1.40819508708514
C           -7.13287195275422        0.00305374405639       -0.30329844879068
H           -4.79109276988463        2.13252380883482       -1.53173399856063
H           -6.16748048899217        1.38741275415920       -2.31394938283279
C           -6.60985960085137        3.24384496921985       -1.25888761078811
O           -8.17020329462030        0.38534623516898       -1.09043292205057
H           -7.58738718415648        3.07523408922611       -0.78716019658901
C           -5.82757643877519        4.20535078293150       -0.36647157612817
C           -6.84044125162807        3.87503152677396       -2.63150544645917
H           -4.88229766124662        4.46806412580284       -0.83566459240234
H           -6.39496717059387        5.11814705753151       -0.19954926123303
H           -5.61369055018775        3.75394040558939        0.59914336547255
H           -7.45030463491263        3.23365797618224       -3.26552690870932
H           -7.34709439055580        4.83186842506855       -2.53018004554019
H           -5.88917475837915        4.04334519889772       -3.13126741896677
N           -7.16436088609350       -1.07477093046378        0.33889862960857
H           -6.52783076778764       -2.18151278671359        1.74328966817110
C           -8.29611617059617       -1.96593077737907        0.26856172273469
H           -9.25027123446436       -1.42399141264447        0.22965180395531
C           -8.19882161725285       -2.88473397772480       -0.95518910377010
C           -8.27793288998439       -2.84447436624864        1.52666528532700
H           -7.23524091586488       -3.39045295879489       -0.96109719090414
H           -8.99268060429525       -3.62526694998059       -0.91386443024763
H           -8.29770734199861       -2.29948655202786       -1.86634056721610
O           -7.13685720279350       -2.81405623936727        2.19594108616504
O           -9.21729286441314       -3.51722525110096        1.85709165261681
