42
 energy: -62.486133505587 gnorm: 0.000480670860 xtb: 6.7.1 (edcfbbe)
N           -1.05855025452016       -0.64670392730953       -0.88794368264909
H           -0.33525566369760       -1.34028915310883       -1.03437461678896
H           -0.69189489770130        0.04388830892265       -0.23834509167621
H           -2.27524817225157        0.39830159095972       -1.91326693453021
C           -2.26514365593594       -1.25743497413360       -0.32988514785683
H           -2.47909514421289       -2.15561128096212       -0.92426258146589
C           -2.16734021591576       -1.64075478069639        1.14335215716802
C           -3.41380047692140       -0.28590847976408       -0.58308879866441
H           -1.91556311742589       -0.76753648826486        1.74158702306626
H           -3.12638854827691       -2.01895047988243        1.47974519587659
H           -1.40468679843671       -2.40311324877298        1.28874178211100
O           -3.20660944636118        0.53346003962442       -1.64042895340362
N           -4.43994434029873       -0.36214507396921        0.13171711283640
H           -5.62269241301901       -0.30653052400989       -2.20916038114318
C           -5.62156114035666        0.46514377194789        0.05685220806603
H           -5.93141861310014        0.59055521167719        1.09965219380406
C           -5.50631919229631        1.84322662939148       -0.61135647089077
C           -6.68084891950202       -0.37705028046653       -0.62024958604835
H           -4.73741378887295        2.41312183589269       -0.08492893024764
H           -5.17651395911208        1.73527888981631       -1.64692489481506
C           -6.82638730165326        2.62472758885851       -0.59838025166143
O           -6.45511598842988       -0.69740324088412       -1.90995697271062
H           -7.60207076361245        2.00927387307887       -1.06842038144394
C           -7.27891582263029        2.96834683224167        0.81840204246185
C           -6.66185290530531        3.90380611600374       -1.41850725923538
H           -6.49309189063840        3.50152601700374        1.34964921713041
H           -8.16003483321952        3.60451164411646        0.78276606516090
H           -7.53581631355268        2.07323684504213        1.37763393048389
H           -6.36627644990198        3.67566297622486       -2.44034472537250
H           -7.59684856478307        4.45769967374159       -1.45014491922768
H           -5.90007919477249        4.54175408281676       -0.97506292469323
N           -7.68987840500216       -0.75655275969408        0.02759123971074
H           -8.80646098658585       -0.55565242571643        1.44460181901802
C           -8.72199814998547       -1.56841686299056       -0.57850759882949
H           -8.95609960997742       -1.24048545379368       -1.59926664349876
C           -8.32229410726764       -3.04742809701737       -0.61333605088631
C           -9.98098841543148       -1.42573651831400        0.28960956255670
H           -8.03852434209098       -3.37772451931044        0.38375063472757
H           -9.16502049356808       -3.63872385724299       -0.96030978015581
H           -7.47938461665390       -3.18680807785288       -1.28548240257065
O           -9.75810879376395       -0.81248541599972        1.44582313706179
O          -11.05465455039178       -1.84610177895753       -0.04060425734922
