42
 energy: -62.486133500219 gnorm: 0.000480393423 xtb: 6.7.1 (edcfbbe)
N           -1.43768599067999       -0.83638510142482       -0.34245920227541
H           -0.83462764709720       -1.64929270864625       -0.37223277240947
H           -1.02184065507404       -0.17144570075365        0.30449288532635
H           -2.33734088183503        0.33017920077364       -1.51514890300776
C           -2.77956226218541       -1.19803382250111        0.11813643176708
H           -3.07848140309974       -2.10383403315610       -0.42336488860658
C           -2.88249426085363       -1.45372597867349        1.61905710128993
C           -3.73268815460748       -0.09106696893234       -0.33609788956416
H           -2.55389669843283       -0.57502023467309        2.17099289650279
H           -3.91312491927466       -1.66030474229132        1.88328493197483
H           -2.26323074573536       -2.30219360470390        1.90197826196734
O           -3.24578557215516        0.65940038883118       -1.34602895909659
N           -4.84142832040410       -0.00826468267254        0.23619416968150
H           -8.32423218478234        1.54486814107057       -0.14769718324251
C           -5.94479799651037        0.88505868959184        0.00548932914092
H           -5.96988209175104        1.56632178055308        0.86857309259539
C           -5.86225529586085        1.70122097657451       -1.30489761645371
C           -7.18503215849320        0.01116106042681        0.09287067341668
H           -4.86770934021744        2.14735240216940       -1.32572908169262
H           -5.91741301134141        0.99612232981419       -2.13790299991308
C           -6.87061573654548        2.83482460356457       -1.54213619382060
O           -8.39952195802542        0.58911148592005       -0.04204778662407
H           -7.86933101099842        2.42633607872161       -1.73862994157933
C           -6.93609736161183        3.81467395496797       -0.37007562940955
C           -6.45306662179893        3.58724145348649       -2.80800002284412
H           -5.94374516110274        4.20812758814027       -0.15926320150446
H           -7.58682116908239        4.65107746307052       -0.61719265557688
H           -7.31766268409083        3.35579269481938        0.54098464082509
H           -6.39616779566787        2.90823542111868       -3.65532024211403
H           -7.17303412203633        4.36828900707998       -3.04227286119397
H           -5.47725166677109        4.04818505118380       -2.67302512279252
N           -7.04399177037403       -1.19971713531269        0.39317406984512
H           -5.92779329670247       -2.44017859691400        0.94071184468686
C           -8.12923244359378       -2.12639969899117        0.57770700174402
H           -8.89948054290676       -1.72616005647277        1.25009555833688
C           -8.78919436722497       -2.52639051232799       -0.74565364983715
C           -7.51002585639077       -3.38031955485909        1.22345188134738
H           -8.03248114260524       -2.87723750773028       -1.44450362148956
H           -9.50247708312486       -3.32508261221594       -0.56278457315406
H           -9.30360769072223       -1.67194369452416       -1.17799457120248
O           -6.18784514714112       -3.32759842606881        1.30397813767654
O           -8.16323705693769       -4.31501001935549        1.59822162988341
