42
 energy: -62.486133510685 gnorm: 0.000479678813 xtb: 6.7.1 (edcfbbe)
N           -1.33714826810053       -0.69941193533254        0.87133637913868
H           -0.42081589860222       -1.05964526748390        0.63407740245099
H           -1.65194602900925       -1.19158555247024        1.70328590474929
H           -2.28429757936727        0.96118179388005        1.12588911631702
C           -2.28522552591109       -0.92224323808197       -0.21980860242270
H           -1.79685689372219       -0.59468509130740       -1.14697177854442
C           -2.75098109896436       -2.36781492188044       -0.37680340576268
C           -3.46150689750241        0.01386944176214        0.01345205126478
H           -3.20691561127207       -2.71464927995736        0.54810526086498
H           -3.49596618966748       -2.42301372299207       -1.16286963983734
H           -1.91186828983086       -3.01476980351016       -0.62483774003328
O           -3.19729579421474        1.07607758505739        0.79298905038388
N           -4.57301705551010       -0.23582700203504       -0.51825866584002
H           -6.64450217753457        0.18359495901488       -2.51385609432546
C           -5.70202283146106        0.65555704162483       -0.31781223808744
H           -5.77212009069768        0.93292420032262        0.74115980586172
C           -5.56577058618100        1.92819496130302       -1.16473868010815
C           -6.91421412948479       -0.18161364701109       -0.66129114622511
H           -4.71188374798506        2.48610740317699       -0.77549615072964
H           -5.32019070744886        1.65486574503967       -2.19739174022942
C           -6.80704938350506        2.82863221104380       -1.14671563273430
O           -7.26586947725024       -0.29921342089611       -1.95477566362916
H           -7.67402153360334        2.26012508426361       -1.50223600385526
C           -7.11206626351704        3.33215923049529        0.26200705175011
C           -6.58665466356735        4.00926391500395       -2.09187660960539
H           -6.23781793806588        3.81882947181717        0.68892366697650
H           -7.92632802807433        4.05246163185593        0.23303940758299
H           -7.40918006841149        2.51447108258492        0.91331926793688
H           -6.38976800142899        3.66674807766698       -3.10588392951801
H           -7.46624966711447        4.64783874644840       -2.11357596032539
H           -5.73882403897133        4.60486369233297       -1.76028219347696
N           -7.48308122456430       -0.81652561424893        0.26586288809557
H           -7.75834320968478       -1.09766971692622        2.02304949090166
C           -8.58433557027586       -1.72006465873686        0.01500350061562
H           -9.34124826610335       -1.26680893394453       -0.63727813768931
C           -8.11234546709014       -3.03520982337033       -0.61520269430353
C           -9.22849828413090       -2.03562767570421        1.37329690282564
H           -7.31708586658813       -3.46857406469481       -0.01218015909559
H           -8.94641964401677       -3.72979379852245       -0.66089777046809
H           -7.73584433829732       -2.85213553418584       -1.61792377250173
O           -8.52982908246928       -1.57970244714787        2.40623259648597
O          -10.25078583547002       -2.65320694939057        1.48686974286498
