42
 energy: -62.486133522803 gnorm: 0.000478942692 xtb: 6.7.1 (edcfbbe)
N           -2.23167746174303       -0.67998436707449       -1.89816472092453
H           -2.40889687148981        0.22026603491095       -2.33295256190743
H           -2.22450318646656       -1.38168641126953       -2.62998802757217
H           -1.21823771653181       -0.27454644134444       -0.20452617247046
C           -3.25777150239807       -0.98710402012491       -0.89881693831805
H           -4.28257552901151       -0.88378243416544       -1.28817634651392
C           -3.02724664297413       -2.41824015260055       -0.40932157072581
C           -3.01492276770924        0.03415302562200        0.22321729220154
H           -2.06772985029269       -2.49526756721348        0.09863529786927
H           -3.81485155544208       -2.73344774699244        0.26778880374838
H           -3.02150124299469       -3.09790587521611       -1.25938715934943
O           -1.71472022651405        0.16264179332996        0.51413268515600
N           -3.80887326586308        0.81979129738168        0.80542617104646
H           -4.79031765808741       -1.23003761050199        1.80265732084038
C           -5.24609996842896        0.84950788936271        0.75066844344306
H           -5.56097916388913        1.12557750099004        1.76882365026030
C           -5.68202373938765        1.96400621288354       -0.21536921411709
C           -5.90692774887003       -0.47390789561499        0.43942211252279
H           -4.96098789653316        2.77794327895919       -0.12142996442889
H           -5.62016497230752        1.57267143935103       -1.23234827132693
C           -7.09318138820038        2.50182364912387        0.04975474996399
O           -5.49615873825533       -1.51450774360882        1.20531002363397
H           -7.75525589150036        1.65505361657388        0.25305619086970
C           -7.10819353737509        3.43956981220970        1.25490110869883
C           -7.60608140725673        3.23969662024837       -1.18590535125941
H           -6.48361000129731        4.30958051521309        1.06400355297044
H           -8.12085188760431        3.78220148500851        1.45416964823234
H           -6.73749763186027        2.94398360270755        2.14849362877972
H           -7.65404337018740        2.57749982344446       -2.04726379604008
H           -8.60279521019876        3.63471048862017       -1.00516499156678
H           -6.94801615533538        4.07169555480063       -1.42773362172711
N           -6.85407926377396       -0.55487802815902       -0.38309227243831
H           -7.76769491869755        0.15302565294516       -1.80686784998674
C           -7.53614010157202       -1.79603714086809       -0.66596735943104
H           -6.85914065903730       -2.65909469106117       -0.65102378678681
C           -8.67576511851709       -2.03981923821775        0.32941157517417
C           -8.14705792236544       -1.65768878426388       -2.06896722636755
H           -9.34533932719054       -1.18216668635749        0.34765310636033
H           -9.23421105844247       -2.92149977039552        0.02800525602221
H           -8.26882105825472       -2.19332233134198        1.32597507166497
O           -8.20050602915399       -0.40129751648335       -2.49697761753600
O           -8.55074182236364       -2.59129116362817       -2.70323669870966
