42
 energy: -62.486133523792 gnorm: 0.000478336282 xtb: 6.7.1 (edcfbbe)
N           -1.56553215061274       -0.65396778923749        0.10048650842160
H           -0.89966541754347       -1.40782485765206        0.23394062027862
H           -2.14330844196410       -0.58125009673071        0.93153408279904
H           -3.71009479534171        0.05632234940197       -2.82831920189121
C           -2.42790082351403       -0.93799602376954       -1.03011554811123
H           -1.88510262274060       -0.64290603570302       -1.94233582414095
C           -2.84216248453024       -2.41656916573276       -1.15135294746706
C           -3.70466792473173       -0.13277611694406       -0.91536137575352
H           -3.36145625824606       -2.71700456304911       -0.24457360920031
H           -3.51422567010032       -2.56304829678830       -1.99352281706229
H           -1.96298685107545       -3.04332345959024       -1.28927339714851
O           -4.23937114317902        0.32412847087128       -2.06648432774303
N           -4.20770770331636       -0.00145921845405        0.22847503010327
H           -7.62879772587833        0.59218577323993        1.59102734054509
C           -5.46416364353222        0.64618617204581        0.49840094158310
H           -5.44586322707607        0.84365803097705        1.58088971003551
C           -5.68274787543474        1.97186457668756       -0.26046372214918
C           -6.59002721257113       -0.32319040591689        0.21987403013655
H           -4.74351499030924        2.52730001994481       -0.20421201413741
H           -5.86651471197091        1.73312554546068       -1.30810900917021
C           -6.81810834313191        2.86475252684453        0.25361523443827
O           -7.74948687695147       -0.11475701539748        0.94535163990059
H           -7.76242022332516        2.30847934366984        0.23447767217384
C           -6.56203811547720        3.37875815666274        1.67037666298670
C           -6.97385894933847        4.05255900561818       -0.69656459838011
H           -5.63138529388888        3.94105119699362        1.70019982323470
H           -7.36915912218416        4.03887830928198        1.98118001280945
H           -6.49014937292546        2.57385768139148        2.39981825290216
H           -7.19681462811850        3.71006308360989       -1.70395677087035
H           -7.78319659501439        4.70054053706355       -0.36791962441054
H           -6.05660294980922        4.63638197762107       -0.72657898096867
N           -6.43824079774150       -1.22974579571485       -0.62542726923099
H           -8.88112487315067       -0.41754527701847       -0.46336551924465
C           -7.39560696351660       -2.22760649880909       -1.02227876174879
H           -6.83824052945043       -2.93037376716306       -1.65277132431715
C           -8.04200619661845       -2.99883591825682        0.13632828396452
C           -8.50406561367911       -1.63152292431818       -1.90377797107481
H           -8.65878441793292       -2.35094350001655        0.75513532643066
H           -8.66062508505208       -3.79833837714515       -0.26385636334702
H           -7.26275348315811       -3.43226241126230        0.75931932738082
O           -9.19847569477354       -0.63236649379971       -1.36027343590320
O           -8.74723546599943       -2.04650462125003       -3.00060091180409
