42
 energy: -62.486133520941 gnorm: 0.000478676026 xtb: 6.7.1 (edcfbbe)
N           -1.37049588301925       -1.07509278066047       -0.74203079328066
H           -1.12878813600878       -1.26827259836396       -1.70492188390851
H           -1.02627204036860       -1.84383937553255       -0.17623294492870
H           -1.17635196737918        0.21614959903420        0.53660068549426
C           -2.81578602602407       -0.90903781672740       -0.55724025150470
H           -3.26121144668177       -0.67146870975925       -1.52799565699662
C           -3.46449530262930       -2.16730674992341        0.02695227920773
C           -3.04054486729189        0.27078796090398        0.42697703741747
H           -2.98490661432791       -2.42014815639627        0.97150648428113
H           -4.52090219661403       -2.01360593779946        0.22193800084284
H           -3.35613181385360       -3.00440142683459       -0.66119641338941
O           -1.90545524514090        0.68573462601634        0.99923697150784
N           -4.10255497805103        0.77927608978639        0.85371343523321
H           -5.10778007607443       -0.01450617798652       -1.80591572139776
C           -5.45331505788980        0.93543430822833        0.43171268056658
H           -6.00774077057399        1.14565588128295        1.35314346835962
C           -5.50590060056038        2.18692482608444       -0.47332760894712
C           -6.19404306599883       -0.20359856932233       -0.24300663479283
H           -5.06165950266370        3.00636817644142        0.09281493613697
H           -4.86617226087802        2.02205366965690       -1.34778221322588
C           -6.91147560393817        2.58337189922138       -0.93960581462319
O           -5.78677120661257       -0.61182745138293       -1.46908683526915
H           -7.36302324673067        1.74419519185679       -1.48116596265258
C           -7.81630372286666        2.93890596919407        0.23648049107348
C           -6.80384504094415        3.77026877665044       -1.89645255047508
H           -7.35682318440085        3.71247119303996        0.84740148051641
H           -8.77122844228140        3.30977420238467       -0.12775931150751
H           -8.00888854005047        2.06889720948156        0.85735059110442
H           -6.17217801519585        3.53022375536913       -2.74934903777094
H           -7.78704890712071        4.04637579440414       -2.26882244002379
H           -6.37676696912812        4.62951851427825       -1.38443132828221
N           -7.26074722651815       -0.61952954211156        0.28315096440512
H           -8.59952043661866       -0.44891582569878        1.52989563567698
C           -8.09509466371797       -1.60503890205712       -0.36590103636890
H           -8.20345285158300       -1.40039618276278       -1.43923727977186
C           -7.54937541007486       -3.02664787281265       -0.19057973791112
C           -9.48066523238769       -1.53589947974624        0.29314731587979
H           -7.36575525771532       -3.22764199280868        0.86313232510385
H           -8.27940499976722       -3.73762312039137       -0.56709681124757
H           -6.61986819716775       -3.14020590373109       -0.74317855664992
O           -9.50437734160765       -0.81501032428986        1.40742801683786
O          -10.44103831624710       -2.10003165948311       -0.15047701193774
