42
 energy: -62.486133507880 gnorm: 0.000480299230 xtb: 6.7.1 (edcfbbe)
N           -2.44093542858480       -2.46198761496747        0.73148486459204
H           -2.70229318396989       -2.51462452128105        1.71081664319915
H           -1.51126347501088       -2.85350608987979        0.63479265695564
H           -4.17879333690516       -2.56929453899909       -0.12450627433269
C           -2.47224056937549       -1.07805711427841        0.26294062482595
H           -2.04372342099471       -0.35578107828501        0.97086681539305
C           -1.73334121739537       -0.96852808571812       -1.07125527329547
C           -3.93261382252921       -0.71662148244365        0.03683148544069
H           -2.15626665979393       -1.66503841844486       -1.79204782253973
H           -1.82612458040203        0.04255537296135       -1.45532715775074
H           -0.67844755265134       -1.19996202225620       -0.94036020314867
O           -4.72115400321020       -1.76431868500903       -0.25513427744265
N           -4.26800857833042        0.49063608982814        0.09235913608467
H           -6.29847926238926       -0.00898186429534       -2.24241169863945
C           -5.60411834217985        1.00560951621332       -0.10549550416212
H           -5.85848097699342        1.48485614909963        0.84723102852513
C           -5.53092752304618        2.08319750164149       -1.19831249833035
C           -6.67126131064846       -0.03848191737971       -0.36471779648399
H           -4.77669941959706        2.80536389012998       -0.88175091202483
H           -5.16160310841886        1.63626079332697       -2.12835498144666
C           -6.85642767928897        2.80767861573837       -1.46346697904486
O           -6.90303701858581       -0.44341534065021       -1.62846115095869
H           -7.62460947475641        2.07437365585249       -1.73412012753930
C           -7.33822416047107        3.56747236044798       -0.23001233935681
C           -6.67803710976397        3.77120332585425       -2.63644377964913
H           -6.56564422322676        4.24617692764742        0.12445626040904
H           -8.22222392415256        4.15180345838769       -0.47428065500939
H           -7.59962318521833        2.88454374336933        0.57377468022931
H           -6.35762542192153        3.24269474628879       -3.53211659043563
H           -7.61419639339921        4.27764377404828       -2.85770795027483
H           -5.92978594889636        4.52339776595755       -2.39625669170619
N           -7.28975149931749       -0.50646246407512        0.62949143870617
H           -7.78350150904121       -0.38055499405124        2.35864984698999
C           -8.31050924010728       -1.52025551734928        0.48577635025145
H           -8.96695012100372       -1.32110314494418       -0.37054001773983
C           -7.70331813924182       -2.91872686796673        0.32894627621494
C           -9.14633938880861       -1.50351041743156        1.77283502496152
H           -7.04089802742597       -3.12892739878732        1.16596760887179
H           -8.50042298294118       -3.65632230772735        0.30800735260088
H           -7.13159814467115       -2.96773852655718       -0.59346729910911
O           -8.59884160876626       -0.78147770950924        2.74454183719720
O          -10.17785032116825       -2.10381523260329        1.89571301165222
