42
 energy: -62.486133520447 gnorm: 0.000478984592 xtb: 6.7.1 (edcfbbe)
N           -2.19186508525079       -1.00128601070641       -2.36795281485304
H           -1.57126950028908       -1.70889155042034       -2.74065109546248
H           -1.68984019062270       -0.11791225016021       -2.36761753696516
H           -4.00605598302749       -0.44343992123322       -2.60961162514843
C           -2.61966275031554       -1.33370826694329       -1.01092743789183
H           -2.90850640415093       -2.39287859616908       -1.01106490028165
C           -1.56620600863214       -1.09894046185989        0.06862035478722
C           -3.89569434263705       -0.54536876745178       -0.73819133974979
H           -1.24972499590069       -0.05793488807478        0.06213630510651
H           -1.99220251786359       -1.31987375220705        1.04103380627102
H           -0.69942898801414       -1.73483916943694       -0.10006082499415
O           -4.55410346291951       -0.16641893898771       -1.84416808727016
N           -4.24947856712408       -0.35153189213964        0.45315192686402
H           -6.33114261029281       -1.32816271614379        2.38043387976835
C           -5.47806543865189        0.33021133676784        0.82090666089782
H           -5.37808910994306        0.51632540818024        1.90013092305813
C           -5.74128118868159        1.65572323120757        0.10068316741084
C           -6.59423441164244       -0.66663349955422        0.59598243833043
H           -4.82798425100438        2.25362638091641        0.13139739707958
H           -5.97604747252149        1.43454265340935       -0.93879287009769
C           -6.90000753499342        2.44180567132631        0.72511184062971
O           -6.91341533182129       -1.48263430109755        1.62658891208524
H           -7.71582292723695        1.74163749356012        0.93694385398944
C           -6.48513816170210        3.12774532098513        2.02534874278365
C           -7.40947822134961        3.48336953776448       -0.26905548153333
H           -5.68545867150046        3.84096943151676        1.83575693578832
H           -7.32749497573358        3.66580615148377        2.45446844810626
H           -6.13422470172061        2.41007494211650        2.76290585343625
H           -7.76821681499371        3.00242791032235       -1.17545896010040
H           -8.22711002780591        4.05612524436301        0.16275550988392
H           -6.61166066839921        4.17290000121307       -0.53679870803977
N           -7.12017018043943       -0.75079620939280       -0.54239062640240
H           -6.55136924563623       -0.81176166631748       -2.31550657018813
C           -8.11404281814499       -1.73702076687903       -0.87742189251855
H           -8.05916909606669       -2.63120155802561       -0.24172158170572
C           -9.51966429029425       -1.13600697322896       -0.77806764674685
C           -7.86705353011072       -2.16153344702792       -2.33371847100315
H           -9.56658743377367       -0.21265443431883       -1.35134145259202
H          -10.24119536215208       -1.84324987336837       -1.17731994747143
H           -9.76001551873037       -0.92032460566952        0.26027551077505
O           -6.92824754962453       -1.46175547522153       -2.95619743553777
O           -8.47976489656392       -3.04855648252457       -2.86165990157117
