42
 energy: -62.486133515304 gnorm: 0.000479846943 xtb: 6.7.1 (edcfbbe)
N           -1.66781509559528       -0.81186461613871       -1.93457074402274
H           -1.05420959246062       -1.53842881732356       -2.28239729963426
H           -1.08364026400812       -0.06893384918114       -1.56052475457082
H           -3.20581660958265        0.19241824831021       -2.47295351317722
C           -2.54799753089259       -1.32718792888006       -0.88661266388999
H           -2.96198538108863       -2.27762549336688       -1.24502245757547
C           -1.86551974764632       -1.55095546102602        0.46069405950068
C           -3.73262736208993       -0.37135367969924       -0.76658728043953
H           -1.41942494152325       -0.62279912116137        0.81298194202604
H           -2.60547507397974       -1.87187420162337        1.18513956737707
H           -1.08765109400075       -2.30734148150029        0.37494688892656
O           -3.92093521625305        0.40769190489078       -1.83948608033570
N           -4.42487041299800       -0.42010463206374        0.28063659689119
H           -7.73386713448077        0.16419562054030        1.71488090178917
C           -5.61350871161060        0.35161684152697        0.53551891156512
H           -5.63840588165365        0.45720815228988        1.63124303435710
C           -5.68102919944622        1.74767226308432       -0.11459806183323
C           -6.81408555604498       -0.46572590923826        0.11446303729173
H           -4.72564826601123        2.24460315616985        0.06785587289946
H           -5.78684491129835        1.60893327671149       -1.19027305882549
C           -6.81750150454231        2.64289369793477        0.39301647598454
O           -7.92587381995996       -0.37070572143765        0.93511013972583
H           -7.76825441047249        2.10309319576038        0.31816293220898
C           -6.60386215602840        3.08462798721882        1.84089656182344
C           -6.91911884878650        3.87536930664404       -0.50520542198770
H           -5.68052056604284        3.65381563993899        1.92504546230325
H           -7.42569395600387        3.71924559976595        2.16582676981682
H           -6.54103788013674        2.24113814247315        2.52593298603980
H           -7.12573592034185        3.58335436474943       -1.53165033789893
H           -7.71954123509594        4.52958516724080       -0.16701482108731
H           -5.98646197917644        4.43506318870104       -0.48742875556022
N           -6.76314325452717       -1.14802401195920       -0.92954633124053
H           -9.13877784523325       -0.29044806237054       -0.41514784009104
C           -7.79705937898599       -1.97968245901584       -1.48607648895361
H           -7.31745898173426       -2.52887996967599       -2.30466236346067
C           -8.40920023893852       -2.98284420933109       -0.49864907027155
C           -8.93064810584928       -1.15646718437433       -2.11692582976057
H           -8.95429231801602       -2.47920660144898        0.29669451664964
H           -9.08983408841004       -3.64339319351301       -1.03010965409482
H           -7.61499483803345       -3.57630253106676       -0.05130505102665
O           -9.52746375008483       -0.27917035451190       -1.31001079404809
O           -9.27835819873096       -1.30523229319157       -3.25335283761343
