42
 energy: -62.486133509043 gnorm: 0.000480664489 xtb: 6.7.1 (edcfbbe)
N           -1.74402933272723       -1.03666630100279        1.68189414548530
H           -0.82103445445084       -1.43623548245708        1.56197025776769
H           -2.26456364672748       -1.65484921710139        2.29864615692942
H           -2.58648221502880        0.65047708075235        2.05802015719567
C           -2.43724277634194       -0.93215124596051        0.39696123338782
H           -1.73833263545877       -0.46497869712358       -0.30982743983673
C           -2.92484131763148       -2.25891435359502       -0.17834137446178
C           -3.58220821406610        0.05130175615033        0.58739235182554
H           -3.58650367447331       -2.75726303946365        0.52607178483149
H           -3.47724871750421       -2.07200083743997       -1.09226247829922
H           -2.08121855551205       -2.91178439839491       -0.39317197294962
O           -3.40894282628033        0.92259827388680        1.60278244701492
N           -4.57177393871502        0.01433618939268       -0.18430572513658
H           -7.73695424974217        1.77880596031760        0.93539276574102
C           -5.65626844857064        0.95709396746037       -0.05619502059134
H           -5.48287098104494        1.68109371010336        0.75590070185000
C           -5.77213915473900        1.68566344232458       -1.41086223148292
C           -6.91460009767847        0.17853610859929        0.24384927346901
H           -4.80606565129529        2.15517081782258       -1.61008387548970
H           -5.92664735442239        0.91415066790287       -2.16688062250799
C           -6.87528047726926        2.74288319288546       -1.52081042442371
O           -7.96028754585942        0.85304542272194        0.77860404571824
H           -7.83953090971286        2.29096554502029       -1.26401267218810
C           -6.61368854160865        3.93820226665196       -0.60417035345504
C           -6.96440824586791        3.22335807921109       -2.96930826313268
H           -5.67802657055201        4.42039966862204       -0.87954406091973
H           -7.41406458246529        4.66900133109304       -0.69831370718079
H           -6.54353134051392        3.64988589707332        0.44309098359353
H           -7.18866026234336        2.39428726700486       -3.63591650246712
H           -7.74824001125308        3.96988012251957       -3.07486733041790
H           -6.02201450322817        3.66893299677444       -3.28021123681252
N           -6.93479337592845       -1.05774980697449        0.02919408685752
H           -5.94808723867151       -2.52068384526758       -0.21504627717630
C           -8.06004164163047       -1.90688364733998        0.32046745997072
H           -8.54798027102674       -1.64502575176050        1.26844095508909
C           -9.10233115448765       -1.86727573519678       -0.80181091650248
C           -7.50131210275817       -3.33690396145181        0.42389335247419
H           -8.62590735936449       -2.07852534051123       -1.75685882414048
H           -9.86562033296264       -2.61615492852536       -0.60987742574467
H           -9.56322476766109       -0.88343694687916       -0.84484297332039
O           -6.23832754372589       -3.43625057068570        0.03158644428818
O           -8.15086423775215       -4.26836133531454        0.81229801046651
