42
 energy: -62.486132293415 gnorm: 0.000621705265 xtb: 6.7.1 (edcfbbe)
N           -1.52499173926401       -0.74219083385186        1.38653662698411
H           -0.64261240214450       -1.20948128586545        1.21493618588717
H           -1.92870965493039       -1.15665940862579        2.22222753345046
H           -2.29493573689781        1.04762580977961        1.43773843599989
C           -2.43867427854985       -0.93028058860999        0.25864611287276
H           -1.88493682121152       -0.65893197146973       -0.65058639535085
C           -2.99265738942808       -2.34394904439813        0.10768007950678
C           -3.54882324400396        0.09527397951090        0.41463502893851
H           -3.55827316560137       -2.62539216817874        0.99226809882444
H           -3.65848865711332       -2.38302425758572       -0.74664271660989
H           -2.18101110289322       -3.05433907698676       -0.03575174637527
O           -3.19255957206297        1.21010853876228        1.08730871179465
N           -4.68359426785509       -0.12734219823264       -0.07375759475712
H           -7.87987463052566        1.74787486180610        0.79618908948174
C           -5.73790552271840        0.85192117677561        0.02126968375549
H           -5.57796430229209        1.54924617177109        0.85936541162490
C           -5.75117704035722        1.62809181222927       -1.31436405640045
C           -7.03375300095593        0.10810436483842        0.23623869572694
H           -4.75533996491858        2.05972268532748       -1.44056562241246
H           -5.89506222341491        0.88836470703706       -2.10438028383055
C           -6.79412239964875        2.74056687627186       -1.46052501862146
O           -8.10780131859424        0.82058250626475        0.65618598638140
H           -7.79590335875015        2.32670808665661       -1.30239078202644
C           -6.55090843853386        3.88484705344349       -0.47640563589610
C           -6.74440135404940        3.28081951430898       -2.89004337780164
H           -5.57426991130218        4.32885950396997       -0.65728561994897
H           -7.30575514630153        4.65819031131609       -0.60221040381780
H           -6.57787119045930        3.55444294415001        0.56045867089228
H           -6.95804382341985        2.49157391532620       -3.60675870386030
H           -7.47830930145121        4.07232956838348       -3.02282772994369
H           -5.75898991335042        3.68628404730359       -3.10899906566151
N           -7.05582507907193       -1.13589820707283        0.07922980338799
H           -6.07242074215542       -2.60340543593970       -0.07085187030591
C           -8.21256539881103       -1.96325805377845        0.29629050835209
H           -8.73451905335792       -1.70948211853256        1.22843968885459
C           -9.20732296009613       -1.87682410348322       -0.86559601621081
C           -7.68993932378077       -3.40850439299571        0.39711865068225
H           -8.69510419650442       -2.07038066179942       -1.80580072013419
H           -9.98759333472797       -2.61955403575393       -0.72506479141851
H           -9.65242061768421       -0.88551937559698       -0.90061848382325
O           -6.40007681973057       -3.52142954936618        0.11571441563937
O           -8.39068285427621       -4.33771736492435        0.69188415462663
