42
 energy: -62.486133514844 gnorm: 0.000479171462 xtb: 6.7.1 (edcfbbe)
N           -1.47116509541222       -0.75642504890602       -1.77858303619507
H           -0.84043971785378       -1.48292640968097       -2.09514568338500
H           -0.91496560772122       -0.05493348955995       -1.29731281400433
H           -2.93783499176855        0.30267462189071       -2.43707222883934
C           -2.47915611741486       -1.29939661888739       -0.86820838244514
H           -2.89737327722381       -2.19529843243860       -1.34470840657828
C           -1.95427569472189       -1.66462298503368        0.51762150567280
C           -3.62231009242591       -0.28965435119561       -0.79570190228655
H           -1.51069002645537       -0.79208300510482        0.99265481363604
H           -2.77961551381055       -2.00533447275334        1.13258072810346
H           -1.20423944097701       -2.45017206778098        0.44740022517532
O           -3.70117933083069        0.51870148570205       -1.86374812990658
N           -4.37452487555325       -0.32263554593819        0.20757967839844
H           -7.48278595415006        0.28849907691930        1.91384369230128
C           -5.54388744422029        0.48282479996362        0.44214198618224
H           -5.48218992524747        0.75373338461615        1.50743332376586
C           -5.71224691594116        1.75809586893610       -0.40545838087660
C           -6.75289395491084       -0.40525157781332        0.24310192783329
H           -4.78777236655309        2.33500678372632       -0.34141222935927
H           -5.84478443337009        1.44790576658254       -1.44162699589840
C           -6.89142060418668        2.64453921520117        0.01268123268582
O           -7.74710979508988       -0.30632425121087        1.20168583242353
H           -7.79723309652071        2.03259448188291        0.08923234087925
C           -6.64160888892129        3.33807884802672        1.35185978772719
C           -7.13777788291755        3.69557856054777       -1.06872327990795
H           -5.76242412427382        3.97572376462151        1.28377030016196
H           -7.49347764355063        3.95997641407386        1.61897159776417
H           -6.47922682924196        2.62719369199878        2.16008645439826
H           -7.37411288280212        3.21850967627601       -2.01639194742349
H           -7.96967290085081        4.33957743311838       -0.79258525608821
H           -6.25328438606886        4.31397967154190       -1.20521436304067
N           -6.80849850694004       -1.14767955631575       -0.75876117022371
H           -9.14058374773378       -0.37571613343398        0.04624799514892
C           -7.86515169864946       -2.05367327559736       -1.12363329540574
H           -7.47577401204323       -2.62396984988931       -1.97500541048270
C           -8.27867435511881       -3.02874233876472       -0.01281653365561
C           -9.11799942402337       -1.31976836959729       -1.62681946863744
H           -8.72400061916460       -2.50706137463057        0.83151353360301
H           -8.99811009361747       -3.74206827454945       -0.40722435515285
H           -7.40047683186903       -3.56640438076817        0.33732047424880
O           -9.64650005517288       -0.43023045396229       -0.78650859045886
O           -9.60874211749165       -1.54484689096732       -2.69613031421598
