42
 energy: -62.486133506583 gnorm: 0.000480674322 xtb: 6.7.1 (edcfbbe)
N           -1.04483903820963       -0.56850403592562        0.68142912640780
H           -0.11115179257122       -0.83809695829108        0.39612588312360
H           -1.30231925024822       -1.15172307850789        1.47327670497169
H           -2.10924015113593        1.00906850851405        1.08024080824445
C           -2.00152638827382       -0.76499515901915       -0.40661109145816
H           -1.57275660266518       -0.29407649961795       -1.30168800829514
C           -2.33007661625068       -2.22477437181145       -0.71242261187966
C           -3.24779652145743        0.02888571728269       -0.04573314550776
H           -2.76224824506606       -2.70220237449092        0.16426731552949
H           -3.05365278271005       -2.27765894397919       -1.51855170403424
H           -1.42980111010624       -2.76259901963125       -1.00337926072755
O           -3.04316378579627        1.05502774126730        0.79394725370296
N           -4.36350123396552       -0.29858792910941       -0.52672678731009
H           -5.68402342989092       -0.77323776026364       -2.18850792185078
C           -5.55756306706937        0.46735008249946       -0.22410497547980
H           -5.63550128600128        0.67282977224780        0.84834343405014
C           -5.56799904603698        1.79362857520756       -1.00571256211441
C           -6.70792197402530       -0.40819602230689       -0.65789453633640
H           -4.75541435010151        2.41382166408482       -0.62299243847548
H           -5.35576963637853        1.57720300992864       -2.05735898405832
C           -6.88974648219837        2.56229988463554       -0.91072464211777
O           -6.59035305874580       -0.93862845491344       -1.88609339881827
H           -7.69890890357149        1.91575340152986       -1.26811211681720
C           -7.20070535458863        2.97750763371120        0.52440229820613
C           -6.81983094469669        3.79463032359162       -1.81167974770750
H           -6.37638082048708        3.55413040680567        0.93899855040961
H           -8.09721661549433        3.59218238099226        0.54931007791757
H           -7.37159899402232        2.10769181480126        1.15213082492035
H           -6.62197601196883        3.51139967893747       -2.84328248867669
H           -7.75991425992802        4.33975118506397       -1.78233300179530
H           -6.02638487505680        4.46112260351685       -1.47960409286568
N           -7.65261115374161       -0.65700900665033        0.13730307599002
H           -8.61905653783187       -0.20771206802694        1.59594417509842
C           -8.75328410709726       -1.51844915461324       -0.24058922700734
H           -9.10022212548671       -1.31343318839880       -1.26104292323436
C           -8.37255568981143       -2.99935134513543       -0.13749136544566
C           -9.90579917793763       -1.24116267177449        0.73586980288804
H           -7.97747837874322       -3.21242126316137        0.85376956391316
H           -9.25602056595816       -3.60823211299712       -0.30795658539206
H           -7.61620665320592       -3.24016881805570       -0.88006237126378
O           -9.56089785098705       -0.45683430148572        1.75023244012893
O          -11.00277638929949       -1.70825568538986        0.60399965613843
