42
 energy: -62.486133504550 gnorm: 0.000487522805 xtb: 6.7.1 (edcfbbe)
N           -2.29450763827507       -1.38574417644229       -0.74171001324905
H           -2.12586292131153       -0.75179121956811       -1.51565892736942
H           -2.18425887524959       -2.33460465988073       -1.08092625297636
H           -1.80671959989730       -0.41443294627579        0.90561808765181
C           -3.62871501934594       -1.18618843321032       -0.17662857929997
H           -4.42020559786112       -1.14825013771969       -0.93854422699831
C           -3.91782570452158       -2.31357517558746        0.81628723965036
C           -3.57674757130034        0.12067581936534        0.62152656251544
H           -3.16103558012952       -2.32350807686664        1.59764151923655
H           -4.89052682639090       -2.16498346585169        1.27601813552601
H           -3.90257234573322       -3.27792515708428        0.31074572533053
O           -2.40504414141768        0.27937819221666        1.24829858897601
N           -4.44856979037176        1.00483715348365        0.81164178812815
H           -6.43213187991532        0.68092824793875       -2.13891503555814
C           -5.72396961543619        1.20914030276880        0.19108693869729
H           -6.34922309502709        1.60220696077026        1.00567858640448
C           -5.54102182359672        2.33067295621714       -0.84783482096853
C           -6.48213109257663       -0.00190295141962       -0.33844456115301
H           -4.85658019769791        3.05380861635521       -0.40115012647907
H           -5.02856103291472        1.93381036164440       -1.73255516988107
C           -6.84180452639256        3.05010356791244       -1.24041010663223
O           -6.74468143902024       -0.09836309786629       -1.66112917204002
H           -7.65308138690725        2.32126092200423       -1.35742800438512
C           -7.25917168123939        4.04162744870291       -0.15685912883698
C           -6.65178990326037        3.78168316711347       -2.56926891653220
H           -6.50350188831951        4.81509304333049       -0.04133383067155
H           -8.20037941981919        4.51697010146759       -0.42272161751361
H           -7.38878282009166        3.54377221655070        0.80044190016468
H           -6.41466589790023        3.08949839036875       -3.37597740087884
H           -7.55877749803890        4.31632634750367       -2.84020966621857
H           -5.84133917588076        4.50260771314093       -2.48834357789607
N           -6.87825918062044       -0.86575184723680        0.48969366812252
H           -7.09303495926047       -1.35197110046097        2.22638025968380
C           -7.70942590154112       -1.99136271891396        0.12002470102248
H           -8.65212891561091       -1.61900635701824       -0.30585328838626
C           -7.10063653774355       -2.97988728537186       -0.87762968041967
C           -8.06112530525549       -2.73495735107259        1.42104137963067
H           -6.14687135945444       -3.34849623736388       -0.51093900631991
H           -7.78117763147781       -3.82009185397020       -0.98380864468431
H           -6.95776253079447       -2.50693594622346       -1.84510895959614
O           -7.58426806124099       -2.15595650800152        2.51604219604397
O           -8.70686589144012       -3.74549252206718        1.43702983420255
