42
 energy: -62.486133528019 gnorm: 0.000477625836 xtb: 6.7.1 (edcfbbe)
N           -0.95696672816377       -1.37927315747315        0.29418311134984
H           -0.71665362335967       -0.98871477427311        1.19939730263013
H           -0.09494876549023       -1.56029412208313       -0.20640272239919
H           -2.56671723529518       -2.33265642516896        0.58048595767594
C           -1.81268081348756       -0.46198837178630       -0.45796265221378
H           -1.54355959585310        0.59589118603460       -0.34249114248871
C           -1.78613654607415       -0.82795502554376       -1.94230802228182
C           -3.23648361878651       -0.65412575103417        0.04818241191856
H           -2.05959948453410       -1.87262216936811       -2.07634291091768
H           -2.49255734529760       -0.20572305071136       -2.48332763817200
H           -0.79116719048069       -0.67118204137670       -2.35354216559386
O           -3.44599029132537       -1.89442810439841        0.56811001942026
N           -4.03504268891522        0.29770934308288       -0.04719413615970
H           -5.11814722767241       -1.90153670811858        1.09287175681436
C           -5.43862781798543        0.45531186661891        0.23394604430974
H           -5.49251129995148        0.80152954563096        1.28035034773801
C           -5.92952202759720        1.59454451970878       -0.67430469703404
C           -6.36351724327893       -0.75280609831867        0.17795162035707
H           -5.08628869547720        2.27119273529754       -0.81877813220460
H           -6.18709902709052        1.16802664606198       -1.64362493851739
C           -7.12117210574398        2.38237761046066       -0.11737495655318
O           -6.06699568207218       -1.85415237749984        0.88135718412150
H           -7.85558867605265        1.67379239692101        0.27563248932520
C           -6.68892637544580        3.31808511647706        1.01018711542593
C           -7.77292402977000        3.19448634579352       -1.23530898508768
H           -5.97427992754172        4.05055902535101        0.64052599699407
H           -7.54902967797561        3.85063954362089        1.40948980269093
H           -6.22469425725126        2.77110764274879        1.82722769506163
H           -8.14121360737172        2.54719060354501       -2.02711939713017
H           -8.61159837684717        3.76824239485278       -0.84815086121181
H           -7.05367315394454        3.88880142166678       -1.66486589589909
N           -7.45226112542638       -0.63178909409099       -0.44985049585171
H           -8.44574954471874        0.22225252557554       -1.68529414816192
C           -8.42262538773667       -1.69964834226177       -0.50542745138041
H           -7.94960455907552       -2.68057133562579       -0.64301959971714
C           -9.28757935494397       -1.74407972329761        0.75940974542741
C           -9.33772229748222       -1.41079773245917       -1.70449577170136
H           -9.74076128014752       -0.77024656779728        0.93513254074691
H          -10.07267283356939       -2.48392207091758        0.63124199731274
H           -8.67428751664240       -2.01099295632298        1.61640413937905
O           -9.17679773378066       -0.19163714082250       -2.20516852186489
O          -10.13181649066066       -2.20262330087455       -2.13079678815590
