42
 energy: -62.486133508651 gnorm: 0.000480786132 xtb: 6.7.1 (edcfbbe)
N           -1.44580523594603       -1.73036595555186        0.86929473255738
H           -0.43625966253902       -1.80449903074324        0.88671639452485
H           -1.81616307693312       -2.64678391223818        0.63095146540546
H           -2.90091055794326       -1.08104989842014        1.94567877115840
C           -1.88683060819493       -0.74012388177763       -0.11089943256412
H           -1.25333894718577        0.14764825729502        0.00849078576611
C           -1.82477339145135       -1.20682602367529       -1.56557185792806
C           -3.29712021180975       -0.31862781627477        0.27745816645557
H           -2.39563566718955       -2.12611391667400       -1.69245866517320
H           -2.24627388528549       -0.44048685705526       -2.20836560652195
H           -0.79458630745040       -1.39434294073644       -1.86066922435619
O           -3.65528493142077       -0.61063999989007        1.53496950709001
N           -4.01917629831044        0.29651202609515       -0.55555022734095
H           -4.88767288139173       -1.38905430022291       -1.26306331922191
C           -5.36981973435900        0.68330713265603       -0.19307185603487
H           -5.42430880186063        1.00175427970812        0.85482297639597
C           -5.74335429802565        1.84966575454079       -1.12579475631107
C           -6.29939841931730       -0.50227006345822       -0.36542600984046
H           -4.98807282556380        2.62370013370542       -0.97317982020000
H           -5.64240408060626        1.49413369945562       -2.15353671460499
C           -7.13428250939532        2.45666142977428       -0.93592536853727
O           -5.78925355930663       -1.59608032649265       -0.96400877912617
H           -7.88170252333818        1.68624275230666       -1.14145443539637
C           -7.34275695414030        2.97761560017405        0.48352213216433
C           -7.32758208496118        3.59122392792993       -1.94154295929037
H           -6.58859121329692        3.72305484864753        0.72863823865759
H           -8.32272493978210        3.44027778905724        0.57128270584879
H           -7.28235089351163        2.17046963185935        1.20823234809195
H           -7.19916395292682        3.23175422846749       -2.95980517266677
H           -8.32688965535433        4.00923182729072       -1.85044399326584
H           -6.60554020849113        4.38584407392641       -1.76429168421100
N           -7.51274226255532       -0.39716533464173       -0.04195890069820
H           -8.95885764655779        0.59350640632609        0.52757385472845
C           -8.44077027972443       -1.48668806224896       -0.24953293858494
H           -8.33174555254348       -1.92889806158684       -1.24828931809586
C           -8.26546965359992       -2.59069754656139        0.79980587004315
C           -9.85847065761472       -0.91639150179719       -0.10896600351651
H           -8.33634506448657       -2.16700420440102        1.79970428151376
H           -9.04565349850043       -3.33573859017324        0.67150655027668
H           -7.29240416663366       -3.06080054726351        0.68238772257623
O           -9.89268013006401        0.30799845036054        0.40279604046038
O          -10.84302402999322       -1.53197930932318       -0.41109042275226
