42
 energy: -62.486133514150 gnorm: 0.000478824828 xtb: 6.7.1 (edcfbbe)
N           -1.21711551374121        0.24018265285648       -0.06124495482315
H           -0.30398468810929       -0.12516190372844        0.18662819340632
H           -1.73862432093406        0.41258406695563        0.79156627300867
H           -3.32932210681747       -0.36415217519255       -2.88389976531317
C           -1.94219257137313       -0.71467025987208       -0.87594297169716
H           -1.49801851096541       -0.69156592512749       -1.88273729248204
C           -1.89477894197937       -2.16152568048278       -0.34773055349628
C           -3.39076518718537       -0.27669978624071       -0.95110503087014
H           -2.32476733180816       -2.19844755793070        0.65106898722052
H           -2.44944259581021       -2.83428169462780       -0.99938569472592
H           -0.86330595797265       -2.50472988445988       -0.30013939967825
O           -3.96593509598984       -0.21223066791454       -2.17465257008598
N           -3.98784283964214       -0.04558640017104        0.13331538458621
H           -4.87384536657944       -1.91691797361645       -0.40925953417191
C           -5.36838095644969        0.37935741232506        0.22982142250159
H           -5.53874381871264        0.53308460877137        1.30287269719287
C           -5.55421503922169        1.72339830196760       -0.50272733084192
C           -6.33760041078427       -0.70233739399510       -0.21782362749084
H           -4.76033107631631        2.37953846719914       -0.13460759637625
H           -5.38321928951657        1.55631146886237       -1.56699939512064
C           -6.90106518760122        2.42971210713408       -0.33522686137323
O           -5.83443109307526       -1.91340634048085       -0.52674440154777
H           -7.66441227463049        1.83855326272831       -0.84481021722957
C           -7.29519975410644        2.59818673740117        1.12918298802409
C           -6.82754832791330        3.79608916002908       -1.01684607192770
H           -6.51605991913063        3.12752700416950        1.67432005809314
H           -8.21465139706383        3.17392331032310        1.20304443522903
H           -7.45950172373351        1.63420273349497        1.60316811877765
H           -6.54487580094585        3.69114403661789       -2.06169521551490
H           -7.79456235890151        4.29069309799394       -0.97323841481994
H           -6.09400336888494        4.43148382266402       -0.52448285507012
N           -7.57447669037453       -0.46168607022740       -0.23175647397787
H           -9.05611761012887        0.62613319198009        0.10531656226675
C           -8.53274940390318       -1.47414919180669       -0.62058259798265
H           -8.24879327251144       -1.95919533112495       -1.56229216867193
C           -8.70818773508658       -2.55195247472720        0.45738590229228
C           -9.88941460739320       -0.78134943057507       -0.80193928564741
H           -8.96183519850994       -2.08882339029765        1.40915675091535
H           -9.50971320397776       -3.22409902074936        0.16413854319108
H           -7.78735624277847       -3.11757797639362        0.57139914462079
O           -9.95323884530928        0.41991563313860       -0.23902494279430
O          -10.81556562076753       -1.29350002043071       -1.36655506881660
