42
 energy: -62.486133515568 gnorm: 0.000479721624 xtb: 6.7.1 (edcfbbe)
N           -1.43783847305081       -0.99441014050133       -0.62082816995083
H           -0.79043647738878       -1.77321852542635       -0.63605970197788
H           -1.01119099867071       -0.25420918218756       -0.06987536146446
H           -2.54163053903407       -0.00011094602429       -1.83113915461570
C           -2.71161407136857       -1.38575932938463       -0.01638118513483
H           -3.01914756878188       -2.32680916439262       -0.49118800362738
C           -2.67399001260788       -1.57483047268966        1.49676373556063
C           -3.74194428575490       -0.34037941887708       -0.42809665882687
H           -2.34000344432579       -0.65891967860866        1.97981112780664
H           -3.67213305839536       -1.80342613080796        1.85368387486660
H           -1.99775812255038       -2.38473765613316        1.76316138616737
O           -3.44359113610413        0.29143211049937       -1.58479636122120
N           -4.76224534114282       -0.18532785639153        0.28307768167452
H           -6.52456678422621        0.54162480199085       -2.34253727834709
C           -5.85512605843082        0.72723249126250        0.02249073749689
H           -6.21512677274281        0.99318232749014        1.02383148110091
C           -5.54509485616525        2.00954425475918       -0.75599333204589
C           -6.93231857132150       -0.14479103556748       -0.59884676223695
H           -4.71525383660563        2.50970691564465       -0.25131210462115
H           -5.19262232167744        1.77641549552624       -1.76460868189878
C           -6.74400367760166        2.96687767247920       -0.83102683595630
O           -7.10938539959038       -0.11013393475042       -1.93328368994680
H           -7.64380269379302        2.39881014420484       -1.09562893245064
C           -6.99427259827717        3.65584781520326        0.50842193294330
C           -6.49798335631446        4.01584197490617       -1.91532076399447
H           -6.11942288290202        4.22882673946122        0.80891095027393
H           -7.83790798014089        4.33734899858395        0.42761974102981
H           -7.21928567746040        2.93306412981267        1.28813637717837
H           -6.37552169523390        3.55146002740357       -2.89201615262390
H           -7.33494317776083        4.70757976821411       -1.97178315116066
H           -5.59807587212482        4.58501104844854       -1.69176998303864
N           -7.54582710484256       -0.94574396580400        0.15342613455023
H           -7.96293860234645       -1.51541177615583        1.81426145931939
C           -8.50838761243804       -1.89874682129509       -0.34838649197450
H           -9.22914948679848       -1.43111904334247       -1.03100215565413
C           -7.83048266329662       -3.06907188797786       -1.07011835937776
C           -9.26494598231793       -2.45444462975808        0.86852798332075
H           -7.06916878110230       -3.50638958184702       -0.42709479275564
H           -8.57532951138976       -3.82330317331111       -1.30790416366190
H           -7.36253090906076       -2.71989475175329       -1.98690816831668
O           -8.72491328998337       -2.10552471473980        2.02878494677762
O          -10.23427956583492       -3.15511870725028        0.77193204530271
