42
 energy: -62.486133513528 gnorm: 0.000479960011 xtb: 6.7.1 (edcfbbe)
N           -1.12959780836601       -0.63290053891154       -1.11905774646579
H           -0.48924732074035       -1.31899769014860       -1.50027600688905
H           -0.71094779327544       -0.26315458927518       -0.26982033069498
H           -2.21655400248279        0.85787485354038       -1.69786463461444
C           -2.42173676788378       -1.24297129440630       -0.80749667590752
H           -2.73582033829056       -1.80367220892212       -1.69778377494051
C           -2.41333299524133       -2.18031160074094        0.39670208826330
C           -3.42939931485566       -0.10848181852292       -0.64156806520042
H           -2.09282702582883       -1.64379743671753        1.28739071549954
H           -3.41643284091048       -2.55607450004822        0.56491259283200
H           -1.73869632643699       -3.01657184629900        0.22343070831001
O           -3.10093091051529        1.01183292208410       -1.30889410384835
N           -4.44243140134925       -0.31414126247388        0.06681356955228
H           -6.56087130441199       -0.72599163572395        2.10323353886799
C           -5.55034792406054        0.58121393807400        0.31399680302484
H           -5.44438065111790        0.91959816370225        1.35537168942346
C           -5.68149757756446        1.79666484303626       -0.61165564293034
C           -6.74722855795852       -0.34569147301800        0.22250762438486
H           -4.81690136373021        2.44139070956452       -0.44957611452140
H           -5.64998309359928        1.43531224278166       -1.63937050786737
C           -6.96141289746112        2.61756924603805       -0.41937961854302
O           -7.14327276907252       -0.94849563472852        1.36692504180316
H           -7.81041279341983        2.02187160422903       -0.77234860869234
C           -7.20648846994924        3.00011263737808        1.03864333067555
C           -6.87849824759778        3.87495772393904       -1.28377572023906
H           -6.32511652154899        3.47905330453175        1.46066408353519
H           -8.03805049734863        3.69812270547553        1.10610134278948
H           -7.45731866698039        2.13056428289621        1.64142846839235
H           -6.69446612760183        3.61185286758272       -2.32236596401683
H           -7.80748971373871        4.43813877168890       -1.23049079341265
H           -6.06839564146188        4.51616655454844       -0.94333004981441
N           -7.26299230657565       -0.59509642425127       -0.89893986318643
H           -9.13763351984372        0.54650711030587       -0.38819797442270
C           -8.31561578669592       -1.58370731626988       -1.03187879386802
H           -8.69835725359648       -1.46943576284433       -2.05799757855965
C           -7.80392539890443       -3.01053235729493       -0.84591595289218
C           -9.50166748424629       -1.31345006459367       -0.09828125282241
H           -7.42019365912800       -3.13566613086262        0.16257549734331
H           -8.62287647799853       -3.70803824869811       -0.99536726584718
H           -7.01046476907736       -3.21417981762227       -1.56010045040022
O           -9.78452169463698       -0.01198941677597        0.07175787391072
O          -10.16785525027900       -2.16748123026789        0.40821363604683
