42
 energy: -62.486132305443 gnorm: 0.000619461615 xtb: 6.7.1 (edcfbbe)
N           -1.01464234757806       -0.98980121749967        0.23494397173865
H           -0.12853815587934       -1.17957410045944       -0.21753646495300
H           -1.23653607018919       -1.79189534720766        0.81881840738112
H           -1.91662654504781        0.39619409842839        1.21555564856006
C           -2.07445153580534       -0.79179073294962       -0.75455804475411
H           -1.68377057896607       -0.10841416450026       -1.51907645789448
C           -2.57192333496361       -2.06881029874989       -1.42716062591306
C           -3.21449639257249       -0.06067007923121       -0.06062328600601
H           -2.90095568964600       -2.78322536294845       -0.67478847203947
H           -3.41885159810020       -1.82784712879167       -2.06036830898288
H           -1.78266562493377       -2.52112572721166       -2.02425857625589
O           -2.86277643330673        0.59525745284950        1.06754713665827
N           -4.36408522108680       -0.09168685618591       -0.56212721333636
H           -6.59546846996410       -0.06914409751481        2.06874958809781
C           -5.46301545814933        0.62721043065297        0.03302092991640
H           -5.20291553616959        1.00951139397065        1.03363368839272
C           -5.83752712551954        1.79384237243803       -0.89557572817398
C           -6.63244850247519       -0.32415484705014        0.13442267917628
H           -4.96632853821543        2.44354236731942       -0.99973864664667
H           -6.05885093680881        1.35086425528589       -1.86649739280053
C           -7.04035348304022        2.61208379123111       -0.41562242849791
O           -7.12748411534294       -0.53542705594988        1.41190677377751
H           -7.87026462599125        1.92851122996473       -0.20425160854009
C           -6.72174113338895        3.41095631944716        0.84717012193725
C           -7.48261669290935        3.56013803675555       -1.52844649913207
H           -5.88651387676062        4.08449916589806        0.66606784048087
H           -7.58334101655575        4.00523299275993        1.14275440875360
H           -6.46182273194344        2.76316700815898        1.68118445868320
H           -7.75662576968983        3.00015590123742       -2.41867030593403
H           -8.34430394533535        4.14289208661932       -1.21161401235419
H           -6.67799132395688        4.24632629645218       -1.78463642620121
N           -7.08248697470817       -0.86358410555325       -0.89616355417992
H           -8.87792738512934       -0.53368390705450        0.92924414696886
C           -8.16599396995032       -1.80447735753895       -0.99490225311553
H           -8.15289068887258       -2.15324512842199       -2.03396940530252
C           -8.05015438408684       -3.01501723743348       -0.05827093564843
C           -9.53403942730440       -1.14050016785559       -0.77372092031798
H           -8.11547789772651       -2.71981646961602        0.98675383859358
H           -8.84868526309045       -3.71964597288712       -0.27710505597866
H           -7.09198770196990       -3.50302569567825       -0.22142824090036
O           -9.68316450248724       -0.48891893689529        0.38023243251356
O          -10.42345025375567       -1.21692893172180       -1.57196008300780
