42
 energy: -62.486133504668 gnorm: 0.000480966962 xtb: 6.7.1 (edcfbbe)
N           -0.87149526965771       -0.37546589633202        0.52852956282215
H            0.07412699795300       -0.51308198602609        0.19345981287315
H           -1.02535834461559       -1.03149217419317        1.28940873709263
H           -2.06184038521019        1.05553336658917        1.05590780156741
C           -1.84583095850961       -0.61163946135613       -0.53529659217228
H           -1.49846316312524       -0.06260977952734       -1.42074477950012
C           -2.04468359897131       -2.08160449709878       -0.90088181415251
C           -3.14544092346725        0.04607212654924       -0.09507342266797
H           -2.44198931534535       -2.63038273997051       -0.04973065661130
H           -2.74611909400462       -2.16861391067452       -1.72368484504491
H           -1.09651016447081       -2.52599940316016       -1.19766852790115
O           -3.00607174136495        1.03300039337710        0.79979911392741
N           -4.24338712808794       -0.33932555732443       -0.57569773337085
H           -5.28358770708831       -1.46436689069692       -1.65326844617701
C           -5.49158509820941        0.29046040305559       -0.19517026189422
H           -5.53028062645442        0.48799982420318        0.88057811513407
C           -5.65420393131178        1.61905679300083       -0.96114670143549
C           -6.58510085451510       -0.68179652313957       -0.58202412040236
H           -4.81362474850212        2.25827762323779       -0.68216935035140
H           -5.57221182614803        1.40244582312417       -2.03001660560397
C           -6.96465928592979        2.36441031323708       -0.69663837213965
O           -6.24391201067252       -1.58625744231153       -1.50638074044120
H           -7.79999924642112        1.70832833435233       -0.95739216878077
C           -7.10108918755626        2.77096582421725        0.76803747704288
C           -7.02692070985992        3.60268341724214       -1.59011220175789
H           -6.25970223134137        3.39211863536625        1.06889158735954
H           -8.01729963838456        3.33748923049287        0.91396766316622
H           -7.13738993517558        1.89843492118906        1.41405512671490
H           -6.95362164912435        3.32789647713812       -2.63995964546910
H           -7.96667991197757        4.12794462937039       -1.44000472335673
H           -6.21148208884956        4.28388954146422       -1.35484014830837
N           -7.72361260241760       -0.59067117465485       -0.04643127070154
H           -8.96815565664402        0.42037545724637        0.81397799110256
C           -8.80355620275830       -1.47913041066200       -0.41771164921040
H           -8.82384756159105       -1.67458788542549       -1.49746187230601
C           -8.70746228743808       -2.81680629073062        0.32424916735047
C          -10.11692474620830       -0.79450359295913       -0.01343606598090
H           -8.64136809998303       -2.64220758881683        1.39634765046432
H           -9.59307478368513       -3.40944583152794        0.11309256962608
H           -7.82270079830331       -3.35754765411332       -0.00258543139716
O           -9.94217028760489        0.28955289768174        0.73302541413896
O          -11.19690445726571       -1.21142520203900       -0.32886465232753
