42
 energy: -62.486132308105 gnorm: 0.000618733271 xtb: 6.7.1 (edcfbbe)
N           -1.54578310616257        0.24206497763972       -0.82226993354976
H           -0.58944312083963        0.05305869112608       -0.54247227383015
H           -2.01308459727595        0.74398325208281       -0.07420389021239
H           -4.05227675554001       -2.06832017404319       -2.27264185453332
C           -2.26117968895691       -0.99459858904146       -1.06087318688897
H           -2.06526074448774       -1.29575360556723       -2.10266010134178
C           -1.84526617015059       -2.14943813445702       -0.12965701252623
C           -3.75574694574392       -0.77357905430576       -0.88504520930201
H           -2.00325813836467       -1.85589585110043        0.90597649208011
H           -2.43224650222873       -3.04360259063855       -0.33001813487490
H           -0.79291191987050       -2.38647422161397       -0.27439577799647
O           -4.55711079279002       -1.56889781818004       -1.61759428456043
N           -4.10491202702385        0.06262560904656       -0.01920870948105
H           -6.95106994293862       -0.10452913670024        2.10740199684232
C           -5.39826863063768        0.55337939900039        0.35634693607229
H           -5.29071985926313        0.81309905665280        1.42010718775815
C           -5.64466815200199        1.84358599211372       -0.45729813146381
C           -6.61314206401193       -0.33405207533352        0.18958205563983
H           -4.73946488874391        2.45141097851451       -0.41073865480235
H           -5.79484223050414        1.52951162258069       -1.49117602267442
C           -6.85005791499282        2.66594201939346        0.00921131852650
O           -7.35859536837176       -0.53629994366849        1.34703116239349
H           -7.71683189522109        2.00379051707507        0.11524227677587
C           -6.58467821871271        3.35613659555360        1.34609283281988
C           -7.18748404891328        3.71053394764353       -1.05284401989113
H           -5.73547895524182        4.03041966464097        1.25745767214587
H           -7.45315423118615        3.93701218147940        1.64806222594942
H           -6.36912290467785        2.64126411895163        2.13727160237081
H           -7.43681701157790        3.22879252541181       -1.99475433865659
H           -8.03885940822532        4.31016370254483       -0.73973691522496
H           -6.33987336984887        4.37267248852267       -1.21616596656311
N           -6.90169155766662       -0.82767035396216       -0.91712836792672
H           -8.98110173290813       -0.42159244131424        0.55636424105404
C           -8.00189367009945       -1.69370507079642       -1.24027195523301
H           -7.81491549280273       -2.02549535426244       -2.26800805819126
C           -8.13200920731519       -2.92331865413593       -0.33127503359942
C           -9.34280284143638       -0.94378149729018       -1.25735226607605
H           -8.37941646849695       -2.64229264876769        0.69022990016799
H           -8.90998232856445       -3.57810196509289       -0.71603554728920
H           -7.18682426971849       -3.46152672486894       -0.32267903332229
O           -9.66652598739889       -0.30988652936564       -0.12993681057112
O          -10.06741810932671       -0.94266043930187       -2.21100107688996
