42
 energy: -62.486133525538 gnorm: 0.000478139818 xtb: 6.7.1 (edcfbbe)
N           -2.56142015343048       -1.60698597434176        1.76687676249010
H           -1.66883451034551       -2.07973957997620        1.84616780170058
H           -3.28897724072975       -2.31276852158232        1.86086831565821
H           -3.52445261413722       -0.04445361827912        2.40689666206126
C           -2.68601553705058       -0.94791127541966        0.46729372490286
H           -1.80521079792028       -0.30085445431455        0.34761347400516
C           -2.78271149649171       -1.89111587875657       -0.72933894938670
C           -3.89252436852427       -0.03076012948579        0.56872134240110
H           -3.56655074588840       -2.62602335528980       -0.56460151243177
H           -3.02568647065566       -1.32014499713568       -1.61865127388300
H           -1.83860883678824       -2.41144304573020       -0.87747959968208
O           -4.13647186380383        0.43091174065741        1.80938207907396
N           -4.58439666220316        0.23763578892491       -0.44678822026083
H           -8.07734878969227        1.77167831819636        0.08132761963323
C           -5.74238811266990        1.09541519883188       -0.32200404240796
H           -5.60578810618231        1.84343885186282        0.47398006875183
C           -5.90255827638355        1.77602275228413       -1.69547148782659
C           -6.92541627312241        0.23248466764256        0.06454516309573
H           -4.92095604849064        2.18805575095559       -1.93960508065001
H           -6.10782337591291        0.98764126826713       -2.42184698644635
C           -6.94498861373157        2.89064324097820       -1.84382071734379
O           -8.13200171358982        0.81756054027503        0.21473347626164
H           -7.95494828815839        2.47502516944460       -1.74574697607156
C           -6.75100854135544        4.00944318661425       -0.81994267158880
C           -6.83983169933633        3.47003353772709       -3.25575365926975
H           -5.74473615925952        4.41527492332220       -0.89893606857143
H           -7.45812939444214        4.81519080775281       -1.00600520639526
H           -6.89639833392881        3.66891584781847        0.20394400012001
H           -6.97720303614770        2.69061420052962       -4.00119992611127
H           -7.59955653787757        4.23234415194714       -3.41256922773531
H           -5.86278227368197        3.92261546958343       -3.40866721384332
N           -6.71660876229663       -0.97886823739274        0.32515246886948
H           -5.49233186479425       -2.14001397786101        0.66642880488764
C           -7.70031347346410       -1.90549850032166        0.81796517603707
H           -8.34253668640148       -1.45896537646745        1.58815300248229
C           -8.58130192668014       -2.46322243455544       -0.30379778428212
C           -6.89925376804786       -3.06141354794854        1.44510862930870
H           -7.95789965384606       -2.86676299889216       -1.09910597174763
H           -9.21049716590359       -3.25468434463559        0.09380038141930
H           -9.20687003276148       -1.67254337167069       -0.71051751698695
O           -5.59551289048108       -2.97988969753735        1.19322525691278
O           -7.39734019132283       -3.94890777171656        2.07860082598204
