42
 energy: -62.486133505934 gnorm: 0.000480992947 xtb: 6.7.1 (edcfbbe)
N           -1.92612331290456       -0.45831218568398        0.85584886892343
H           -1.29183771818619       -1.08814019816665        1.33573570393895
H           -2.58468697527357       -0.08678174185894        1.53257423524390
H           -3.53548213551616       -0.79329007238103       -2.42064638507791
C           -2.66426210979763       -1.16967902053903       -0.16858269830081
H           -1.99380828001948       -1.29115347809062       -1.03446752121851
C           -3.17536472670366       -2.55688538972687        0.26551901206400
C           -3.86765042523568       -0.34910062474873       -0.56983813196341
H           -3.83863583908332       -2.44352254014718        1.11999435812929
H           -3.72481634442303       -3.03906948834150       -0.54034663476931
H           -2.33730845655357       -3.19300544210296        0.54326497016219
O           -4.18658173951258       -0.31540828391738       -1.89226384788804
N           -4.55144967288844        0.18861750735160        0.33470978042519
H           -6.68407775218388        0.67219064008350       -2.22134202990763
C           -5.74845470629363        0.96259573232321        0.05918887534137
H           -6.07395067195083        1.30913805831061        1.04710787726420
C           -5.49448052051932        2.17492354247409       -0.84108196424913
C           -6.80539520240626       -0.00869865118219       -0.43468978221202
H           -4.64386262623424        2.71489602951512       -0.41803392892015
H           -5.18622823369670        1.84483594291852       -1.83783496480783
C           -6.69261411630973        3.12933332513921       -0.94997978634290
O           -7.18450687432535        0.01175942646946       -1.72484712950245
H           -7.60096692737716        2.55559099748629       -1.16836134349407
C           -6.91792440631874        3.89407032286511        0.35233347797746
C           -6.45598999232289        4.11417752313435       -2.09494493139845
H           -6.02651529889906        4.45664963438305        0.62092225459204
H           -7.74270301256585        4.59350300393775        0.23736675821869
H           -7.16065671263467        3.21991939686116        1.16928183033220
H           -6.33591746672418        3.59485571687407       -3.04394903605941
H           -7.29573985033229        4.79841656411869       -2.18740683840789
H           -5.55753908351420        4.69861312547966       -1.90878284381904
N           -7.22738308195756       -0.86633369553992        0.38676089197366
H           -7.41933267753947       -1.42365261200253        2.09155754768813
C           -8.15906775547806       -1.90291072337490        0.00614620588694
H           -8.99389935433610       -1.50521152019333       -0.58482280315572
C           -7.47445024235762       -3.01780439530900       -0.79316029988755
C           -8.71367383898350       -2.50918525352660        1.30463880351876
H           -6.61677496659147       -3.39523506383182       -0.23853891084366
H           -8.17999331951049       -3.82811258410625       -0.95339480343976
H           -7.13825552622375       -2.63434598361013       -1.75350732153464
O           -8.08899149981893       -2.08269107043567        2.39460101863763
O           -9.60883780345249       -3.30758216881097        1.32220686514980
