42
 energy: -62.486132629137 gnorm: 0.000457649448 xtb: 6.7.1 (edcfbbe)
N           -2.23999129194345       -0.34798413006204        1.75214553059331
H           -1.25274854806337       -0.56678680976834        1.69148194861993
H           -2.67614890623193       -1.07054600749140        2.31948123047826
H           -3.42967277853147        1.11605879715891        2.10940319096399
C           -2.85326892317466       -0.33684211699815        0.42376205242904
H           -2.22252047927678        0.29385506270454       -0.21771466867377
C           -3.01157353403171       -1.71236020880435       -0.21916986215012
C           -4.18530844540570        0.38517078785795        0.55646779969053
H           -3.51659423280568       -2.39241068279694        0.46289762955657
H           -3.60909335365278       -1.61951895582857       -1.11923124023232
H           -2.03784154955642       -2.12737192451715       -0.47140609578461
O           -4.25471108573105        1.23995143017647        1.59776150899363
N           -5.09857765789972        0.17775639124358       -0.27975035188153
H           -8.75696991421633        1.25215199324718       -0.10742380860296
C           -6.35692036398187        0.87563392041624       -0.21816474045640
H           -6.40568257766199        1.58640688791949        0.62441679460765
C           -6.58106157379496        1.62305399023084       -1.55111617725430
C           -7.44490794579739       -0.14970354285159        0.01038135708732
H           -5.92100990109972        1.16458631541710       -2.28945355588940
H           -7.60732294009665        1.47408704104958       -1.89914834593670
C           -6.30157427637621        3.12818590101352       -1.47808229135252
O           -8.72292663627330        0.29546667694033        0.01994812275446
H           -6.92357538188230        3.56556920031350       -0.68611570973223
C           -4.83817303519552        3.40968766834790       -1.15096468682181
C           -6.68126008360580        3.78463314543056       -2.80438507964870
H           -4.19169435897079        2.95442688397980       -1.89806315297895
H           -4.65351928375673        4.48165927371352       -1.13941859914464
H           -4.57381586260006        3.00969994073230       -0.17678126411345
H           -7.73123420936420        3.61810799408073       -3.03637992154807
H           -6.50785217763441        4.85716122711728       -2.76027522050822
H           -6.08207118373801        3.37358935203391       -3.61361157918135
N           -7.12313630055414       -1.33861689576737        0.24805478110200
H           -5.81096004659142       -2.46507067603936        0.55272458755141
C           -8.05379810109645       -2.39427780426426        0.55335195752617
H           -8.79781540398025       -2.08539836863147        1.29861487334826
C           -8.78210003434219       -2.90223487520430       -0.69498482811191
C           -7.21013772336516       -3.54409322246530        1.13306505470619
H           -8.05854602940216       -3.16825128296728       -1.46280149361201
H           -9.36795885669380       -3.77981083204183       -0.43632272371871
H           -9.44032781565808       -2.12772627524521       -1.08044618721134
O           -5.90483223908363       -3.35331221661412        0.98742770511220
O           -7.68695620925137       -4.51660853496438        1.64875998706989
