42
 energy: -62.486133503640 gnorm: 0.000481482373 xtb: 6.7.1 (edcfbbe)
N           -1.47093164138037       -0.60882351133157        0.53595882209484
H           -0.73152418487313       -1.29038146570357        0.41436088187664
H           -1.50658779320000       -0.37159016687710        1.52363720678802
H           -2.11439133072126        0.99144739741045       -0.28888459372078
C           -2.76052221201153       -1.16113004545535        0.11737597213544
H           -2.60940945508732       -1.61241806900249       -0.87235049464091
C           -3.34685881040952       -2.20587390365972        1.06134166220450
C           -3.70751670894879        0.01737621324785       -0.08904011776262
H           -3.53527985369503       -1.76719037015655        2.03806354201154
H           -4.28820418459799       -2.56736842157033        0.66429012173914
H           -2.65917333568203       -3.04183887236549        1.17342381776130
O           -3.07199287133928        1.17312943171876       -0.38637594368602
N           -4.93758338190353       -0.17802707578763        0.02688849341034
H           -7.98607590157631        1.21288733319132       -1.62842951626640
C           -6.01471507414100        0.75789808496882       -0.16857575255636
H           -6.19268608666289        1.23730673081335        0.80612989996306
C           -5.80858030586254        1.85536522613362       -1.22953754842482
C           -7.23845969405613       -0.10898781694118       -0.44602873663897
H           -4.75201622982697        2.11616148411119       -1.24895758024901
H           -6.04760272742950        1.45167012130024       -2.21918169992792
C           -6.60790825995997        3.14059912959701       -0.95127798322170
O           -8.20701149663801        0.34467454666840       -1.26816038992064
H           -7.60434427816947        2.89353717894852       -0.56102419087254
C           -5.89872974403987        3.99030023149422        0.10172481052575
C           -6.77799983176795        3.94433355739493       -2.24004735737389
H           -4.92764187036152        4.31263163244206       -0.26705585513640
H           -6.48813310216380        4.87270629188206        0.34039441249708
H           -5.74352306856926        3.42652385669360        1.01853854148569
H           -7.32909448756607        3.38049315316831       -2.99117650955304
H           -7.31975822289898        4.86680517412864       -2.04451570851265
H           -5.80478550609226        4.20065301654331       -2.65274499988476
N           -7.30321097696029       -1.22107124783162        0.13388162145689
H           -6.57134172539579       -2.30969849823619        1.30745361985669
C           -8.38751831750436       -2.15717384568095       -0.01604327810891
H           -9.35993715272450       -1.68810765855209        0.18261851803526
C           -8.42593358485226       -2.80273697597981       -1.40507099767256
C           -8.14806828681944       -3.25958401830670        1.03281001688300
H           -7.44850097057169       -3.21545201981172       -1.64662753354603
H           -9.16115490416665       -3.60257404132827       -1.40631863256830
H           -8.69399626394322       -2.06248848744388       -2.15422549766895
O           -6.98849578387269       -3.13832398777132        1.66253792800587
O           -8.92899167034278       -4.14768516400996        1.23915627990687
