42
 energy: -62.486133513639 gnorm: 0.000479985647 xtb: 6.7.1 (edcfbbe)
N           -1.56508990870432       -0.59385330246353        0.99520245388428
H           -0.70340526259120       -1.09793400692793        0.82315985607232
H           -1.85538909517207       -0.80526884856054        1.94684293708879
H           -2.33963002209888        1.16282780929284        0.78499130572201
C           -2.61013826907466       -1.01486757331067        0.06089554957433
H           -2.17098326173444       -0.99946367720474       -0.94556719654223
C           -3.19809923983636       -2.39710180594867        0.33505751390485
C           -3.68878171529282        0.05856780901539        0.08746544846798
H           -3.60745824367288       -2.43850987718111        1.34221076672300
H           -4.00369294624906       -2.58902740036289       -0.36498915668097
H           -2.43387997275224       -3.16442709032380        0.22945037338312
O           -3.26766272464401        1.27202553577969        0.49419571400199
N           -4.86000050421521       -0.24021406038220       -0.25078079679947
H           -7.75712759667796        1.02864958623210       -1.95483183298749
C           -5.94103811637662        0.72381551579302       -0.25736485987519
H           -6.03390408337986        1.16574701162380        0.74518973242254
C           -5.72154002388542        1.85496144939613       -1.27392452014929
C           -7.19162540929624       -0.10496919757213       -0.51113604737242
H           -4.68337649350962        2.17827926310579       -1.18823408577710
H           -5.84130383812607        1.45761645084216       -2.28767791656366
C           -6.62922265757296        3.07565677201914       -1.04260295346849
O           -8.05861157342373        0.24285093945670       -1.48155605229779
H           -7.62405830378434        2.74639190647036       -0.71718671419619
C           -6.05382122394973        3.96723629912496        0.05606918145805
C           -6.78128681937040        3.87638741568292       -2.33589794919419
H           -5.09274630652192        4.37281726956270       -0.25232311033280
H           -6.72669396633500        4.79564895722773        0.26544416012825
H           -5.90609392444915        3.40641805739272        0.97541921689247
H           -7.24177642294612        3.28118404194890       -3.12310667761814
H           -7.40315837790230        4.75249348406391       -2.16798138919345
H           -5.80767654611994        4.21139740165692       -2.68710246581931
N           -7.35322063715565       -1.10686453669199        0.23082458882072
H           -6.60473487264938       -2.17161326597116        1.42180230357697
C           -8.44302883563965       -2.04428101384058        0.13155413361193
H           -9.40774203131784       -1.55118130114733        0.30609704445765
C           -8.49895802280308       -2.78143268330220       -1.21100535856854
C           -8.21380680189904       -3.08380796495784        1.24506202835825
H           -7.52597291412684       -3.21536768433681       -1.43310448353268
H           -9.23818875698904       -3.57535689509221       -1.14939867025484
H           -8.77083050363114       -2.09380110087926       -2.00700202432019
O           -7.03413973365646       -2.96272330489014        1.83839433169880
O           -9.01629531802654       -3.93093223402038        1.52638082602776
