42
 energy: -62.486133048189 gnorm: 0.000568014329 xtb: 6.7.1 (edcfbbe)
N           -0.80782328466175       -0.18042260280383       -1.01659350600357
H           -0.06629042650143       -0.73751806904764       -1.42230731922625
H           -0.46250346180782        0.19814116857521       -0.13902147926136
H           -2.03372690833708        1.17254388629659       -1.52979025718152
C           -2.00219949369979       -0.98667902135250       -0.77393118327199
H           -2.18168679164000       -1.57809892433081       -1.68210192221375
C           -1.90107372282360       -1.92410157835160        0.42745234080691
C           -3.18047663668621       -0.01698179128960       -0.64842049689810
H           -1.70320732886204       -1.35157113348483        1.33134938599763
H           -2.83519185343001       -2.45883128817496        0.56313159373885
H           -1.09703353620172       -2.64216216293648        0.27945176172017
O           -2.96337937706272        1.17495416365385       -1.21698963005109
N           -4.20487617377482       -0.41334167450221       -0.03780733092946
H           -5.06971976318238       -1.82008521558370       -0.91821425206220
C           -5.48659454410293        0.23617626997003        0.11708579983093
H           -5.64775170349587        0.32437656087061        1.19788003468402
C           -5.61382930885339        1.62602265205420       -0.53291796993736
C           -6.52086155379866       -0.74713412447828       -0.41789314685023
H           -4.82622286515925        2.25330278082996       -0.11091310492912
H           -5.41577700413689        1.52255493528660       -1.60196351012227
C           -6.95619984144893        2.33965039155750       -0.35357522986426
O           -6.03998832081788       -1.83826527543046       -1.03397888133838
H           -7.73028289918110        1.75786301855239       -0.85898289583823
C           -7.33567339905631        2.49779103121271        1.11616551958518
C           -6.88023390020652        3.71207921470005       -1.02214638242408
H           -6.55912437728646        3.03983334330496        1.65281579528281
H           -8.26407614047881        3.05712596946237        1.20281341115477
H           -7.47668304573226        1.53025691142836        1.59019847009666
H           -6.61579744567545        3.61563416944404       -2.07253727088850
H           -7.84065426351920        4.21715973757673       -0.95651728829556
H           -6.13082863876595        4.33362952253846       -0.53597757014969
N           -7.75071727878632       -0.52318764654468       -0.25437774454355
H           -9.15923185632689        0.55130630763662        0.27114062982043
C           -8.75099885910104       -1.44179728418772       -0.75533518635156
H           -8.53433186555753       -1.76094161400498       -1.78222291177770
C           -8.87454802758829       -2.68634153000741        0.13234170180782
C          -10.10064396934713       -0.71177103128637       -0.73377440651800
H           -9.05877848250657       -2.39042999873818        1.16335480752272
H           -9.70336315635676       -3.29550084331821       -0.21706616206944
H           -7.95574741040172       -3.26521945947085        0.08758319066076
O          -10.08607767046998        0.41391339329836       -0.03011484021422
O          -11.08198467478496       -1.13595897185052       -1.27835754170383
