42
 energy: -62.486133513621 gnorm: 0.000479274198 xtb: 6.7.1 (edcfbbe)
N           -1.40884128187619       -2.06522530069990        0.06366883118468
H           -1.60836637235159       -2.54355763128793        0.93625368409091
H           -0.40578978166698       -2.08250949771244       -0.07876618243380
H           -2.94054606434399       -2.37920661449161       -1.00698437123284
C           -1.90571812648920       -0.69015144884164        0.10164998114146
H           -1.75674906696943       -0.18732914309550        1.06591471410695
C           -1.23753361663519        0.13085933299793       -1.00177594090520
C           -3.40077355731569       -0.74751145721429       -0.18420249363880
H           -1.38101298788904       -0.35011446667074       -1.96734706882615
H           -1.67494510367264        1.12409875425863       -1.03201902491674
H           -0.17015891518345        0.22209642482157       -0.81247621460140
O           -3.74477188099012       -1.81783986932521       -0.95136550208530
N           -4.12595443075860        0.17145668862954        0.24418656657968
H           -5.43644607257025       -1.61641257666584       -1.33397019052169
C           -5.52414948532008        0.46839044715114        0.10781164679728
H           -5.79831301082553        0.94249216105530        1.05553356574441
C           -5.64282300749386        1.51798339665735       -1.02512437349699
C           -6.56139358753841       -0.60808413197323       -0.15204159915684
H           -4.83911311341508        2.24259825299631       -0.87923408337379
H           -5.46467920505661        1.00923438787671       -1.97709728832574
C           -6.98486277185243        2.25313459882613       -1.08685613774247
O           -6.37323653251309       -1.55525328649848       -1.07515851939953
H           -7.79362405388933        1.51629630831242       -1.10228045593526
C           -7.18459660900228        3.16886628566679        0.11752490973140
C           -7.05165684926243        3.06981243171023       -2.37706809144162
H           -6.39538608650006        3.91683826106099        0.15944811508677
H           -8.14049625460288        3.68073822224713        0.04171244230813
H           -7.17857717606028        2.60621304726915        1.04654881393210
H           -6.95375797694889        2.42729484399444       -3.24932717762904
H           -8.00262945033700        3.59195207579212       -2.44414362064462
H           -6.25230070830966        3.80787299443487       -2.40140938076944
N           -7.65356408878731       -0.47352397049525        0.47269153399082
H           -8.80215120253394        0.62382886549064        1.32629872922084
C           -8.77407295124766       -1.35539863844927        0.23148095116779
H           -8.88773321864332       -1.59168552867796       -0.83477650727033
C           -8.64293168291103       -2.66583377853736        1.01459271802566
C          -10.03770611262092       -0.62382836473481        0.70732624887020
H           -8.47633236459239       -2.45241959614587        2.06854957999848
H           -9.55847082467245       -3.24052320082302        0.90672159344912
H           -7.80508337564210       -3.24370046276219        0.63226597177161
O           -9.78296821686868        0.51402105918266        1.34241295822374
O          -11.14597407749063       -1.04799571672968        0.52976560100103
