42
 energy: -62.486133126018 gnorm: 0.000636979211 xtb: 6.7.1 (edcfbbe)
N           -1.28975651742147       -1.18804459954120        0.47624488611193
H           -0.75880707591131       -0.32747669516964        0.56344577773814
H           -0.63749970711571       -1.93528071802523        0.26889603199959
H           -2.79569495240066       -0.91982644840201        1.65069621678697
C           -2.29404103307018       -1.06948634207764       -0.58131790232115
H           -1.94722613839993       -0.52533223907925       -1.46955434114892
C           -2.77573982213823       -2.45903648635887       -1.00137564888843
C           -3.47417834210752       -0.32280263411077        0.00597098968920
H           -3.12511398770205       -3.01377179146985       -0.13261871618427
H           -3.59183136610840       -2.35823587227710       -1.71066543044636
H           -1.96644351168420       -3.01526504624625       -1.46937982100943
O           -3.60807274011526       -0.46095038415970        1.35090692202943
N           -4.25006824179925        0.32442965389640       -0.73757443623514
H           -5.67833772752738       -0.35392269825422        1.82741228822985
C           -5.41306557666264        0.98611856843803       -0.17279721808701
H           -5.15715783960418        1.45931636873708        0.78703935112460
C           -5.90067590616433        2.02667385390701       -1.18075842455336
C           -6.45436422922498       -0.08303519174866        0.06833054812981
H           -5.07757767057459        2.71374274645106       -1.38324183188057
H           -6.13190385503900        1.48628676657666       -2.09737842928510
C           -7.13489878605768        2.81036902483608       -0.72580481863838
O           -6.48607984784345       -0.59474755877333        1.35028545834195
H           -7.92086267670398        2.09587165815784       -0.46066550257520
C           -6.84089094818005        3.69330682518780        0.48582000862257
C           -7.64013610167182        3.66932145342355       -1.88313503483492
H           -6.01579790273662        4.36992447110249        0.27136722169590
H           -7.71568990481490        4.28931173106513        0.73552498685287
H           -6.58371293715724        3.10044001195653        1.36019416133675
H           -7.88629026393965        3.04602996130185       -2.73851915581676
H           -8.53220337177430        4.21797065364759       -1.59060567330956
H           -6.87877277962718        4.38586723194963       -2.18463291331792
N           -7.14426174362430       -0.50545099995773       -0.88415960418595
H           -8.28702173113470       -0.76156179105404        1.41773737364950
C           -8.10735621597859       -1.57374956761402       -0.85503837278633
H           -8.39693399073803       -1.73012338107726       -1.90068708287346
C           -7.57586740165479       -2.89441768889385       -0.27958127192094
C           -9.39053992625472       -1.19321213446906       -0.09919658221910
H           -7.33533953183964       -2.80107483652605        0.77726010122815
H           -8.32703186906999       -3.67045152238277       -0.40375717797371
H           -6.67530645877884       -3.18359991477574       -0.81716220891087
O           -9.22625903851713       -0.77477803652453        1.15471439585236
O          -10.47738159192973       -1.29137208915993       -0.59330392678275
