42
 energy: -62.486133518424 gnorm: 0.000479199821 xtb: 6.7.1 (edcfbbe)
N           -1.99193533725281       -2.33145377920945        0.07264401287574
H           -1.92429335113304       -2.43677863950141        1.07940508000129
H           -1.11885185242158       -2.64796974929416       -0.33171218007526
H           -3.90371576176156       -2.53157913629468       -0.20456113956778
C           -2.25398631507812       -0.93954217067645       -0.28621877854504
H           -1.66898957868167       -0.21193412937700        0.29237968713093
C           -1.97945555972037       -0.73143034893944       -1.77542139129548
C           -3.73357079991004       -0.67489489499986       -0.03766766595342
H           -2.56264045239218       -1.43664559418953       -2.36337761294736
H           -2.25737973729967        0.27951928717792       -2.05688095666762
H           -0.92384841581864       -0.88223943421177       -1.99239973845405
O           -4.50468209490385       -1.76815562886805       -0.08304453491980
N           -4.08621280454336        0.50814567825226        0.18707416464646
H           -6.24877868205901        0.15017499622087        2.44450613284108
C           -5.43654167324252        1.00354314606341        0.31707703225257
H           -5.41198668608908        1.67180953531004        1.19041523825136
C           -5.69828228157800        1.84409643090571       -0.94562242284218
C           -6.50615160877601       -0.04236531455952        0.53520596152912
H           -4.89973719729041        2.58606229961605       -0.99985593225457
H           -5.60530208531854        1.17668415096610       -1.80284776466869
C           -7.05853553144095        2.54495517707572       -1.01330204526186
O           -6.79618451606474       -0.34903979852744        1.82617414094265
H           -7.82678093561719        1.78319664799338       -1.18494229216643
C           -7.39637024117301        3.30879018273067        0.26481367845414
C           -7.06781400489850        3.49565660532281       -2.20992405249779
H           -6.58611831776962        3.98522810919902        0.52897198905551
H           -8.29877208580990        3.89845542101265        0.11944492237254
H           -7.57497431723629        2.63286127174309        1.09754952138977
H           -6.81808809969132        2.96202216966680       -3.12354263862532
H           -8.05054768536229        3.94495604596471       -2.33233049955871
H           -6.34168496483740        4.29290532644926       -2.06705876145315
N           -7.05703435148452       -0.61269828419318       -0.44346596971359
H           -8.94696945986477        0.53710207042696       -0.07567826084426
C           -8.04295807439957       -1.65545485118054       -0.24329157275186
H           -8.48995173081284       -1.82950538016230       -1.23480241689927
C           -7.43703074423950       -2.96173683394782        0.26406227872923
C           -9.19193909791007       -1.21253871898855        0.67062097185047
H           -6.96673198158129       -2.79754296696056        1.22906601821025
H           -8.22503499780762       -3.70045558664599        0.37880748020059
H           -6.69112088566607       -3.31843066593697       -0.44002178126687
O           -9.53828195548846        0.07910801491509        0.54294938074479
O           -9.78692499338590       -1.94490641352552        1.40573787395408
