42
 energy: -62.486133507679 gnorm: 0.000481384326 xtb: 6.7.1 (edcfbbe)
N           -1.54510702378182       -0.23336254289026        0.78727994073037
H           -0.73021909100373       -0.83298515197020        0.73201049926704
H           -1.69533359719495       -0.01518322580100        1.76869687631688
H           -2.29544675180726        1.29906383696726       -0.14343651216057
C           -2.72638927336010       -0.91397404569514        0.25154773700968
H           -2.44828050061980       -1.29686245306072       -0.74038827524321
C           -3.24871763238108       -2.06448996279194        1.10496035786162
C           -3.78163236956675        0.15845804985715        0.01625859599473
H           -3.59092294865761       -1.69529131124816        2.06821046922607
H           -4.08547812290871       -2.53943315032863        0.60628148116932
H           -2.46333496118209       -2.80109222185513        1.26353029403864
O           -3.25990503288813        1.36785318095718       -0.28995447405545
N           -4.99354131469494       -0.13714888494757        0.12583568517472
H           -8.34970107349524        1.31821296438883       -0.94521051159861
C           -6.10812813139811        0.74022168694289       -0.12217417663259
H           -6.24212257280581        1.37664741308802        0.76643024916770
C           -5.99618258066609        1.64043547825565       -1.37645018749095
C           -7.33630306258334       -0.14890669759156       -0.21607035911781
H           -4.94864289288106        1.70435383964474       -1.66501048460952
H           -6.52281371119804        1.15926023131880       -2.20614390262342
C           -6.51799043936505        3.07210719764652       -1.17592369608034
O           -8.47994342468189        0.39617447789385       -0.69025328730704
H           -7.46627071899513        3.05767197584191       -0.61954706246906
C           -5.51902618547493        3.90071945267977       -0.37176966837535
C           -6.77156313658286        3.72660645995258       -2.53307989890878
H           -4.58393988758144        3.99252885151670       -0.91853815132631
H           -5.91254387269970        4.89727688406835       -0.18423731970874
H           -5.30260942082288        3.43126947055841        0.58455632855296
H           -7.52090965428522        3.17753460417718       -3.10052270237458
H           -7.12200520944226        4.74804237868640       -2.40443670210097
H           -5.85277868874960        3.75072451380490       -3.11441189492353
N           -7.26248903192525       -1.33498033272336        0.18542847495109
H           -6.31829714422850       -2.51035682373959        1.09225133171218
C           -8.36438222938241       -2.26244646620230        0.17925773588638
H           -9.26777374859792       -1.82615012080402        0.62553275437798
C           -8.70316027312803       -2.76199249963322       -1.22866600474660
C           -7.91918030656860       -3.46057028232817        1.03876537531245
H           -7.80535794502276       -3.14252397423602       -1.71131092203604
H           -9.43536541388341       -3.56130539279602       -1.15676257825051
H           -9.11065543716915       -1.94961140490985       -1.82490993022745
O           -6.65896380049109       -3.37712905630497        1.43879105099356
O           -8.64278264712218       -4.38139253439755        1.30251815032901
