42
 energy: -62.486133507562 gnorm: 0.000480778959 xtb: 6.7.1 (edcfbbe)
N           -2.32241499805677       -1.80343225398026       -0.64534663730317
H           -2.15365289538044       -1.40739230319363       -1.56396902830746
H           -2.30052208048868       -2.81297825130561       -0.72963566184376
H           -1.64586095033230       -0.50122401842213        0.59535739299039
C           -3.60640553792204       -1.35438142973294       -0.10554115118717
H           -4.42052539521809       -1.40671912086429       -0.84050690950998
C           -3.95201360948367       -2.19882486502573        1.12134050060546
C           -3.40493406336962        0.08879527764340        0.37068515065035
H           -3.17491126354877       -2.09130986047023        1.87507838265860
H           -4.89825171525077       -1.87247135190617        1.54164625085522
H           -4.02745885149786       -3.25099691850779        0.85211370249634
O           -2.16019552149271        0.30330994148200        0.81578125673060
N           -4.19953379079303        1.05800260002139        0.43747084633334
H           -6.25442785978063        0.71187889688543       -2.28982533202315
C           -5.55838819041861        1.24345064801994        0.03335531700214
H           -6.06760409592388        1.54854283891039        0.95897873166105
C           -5.56719340393634        2.44731491325528       -0.92679682717214
C           -6.35867475925521        0.05676398969784       -0.48525887129644
H           -4.92392377108216        3.20247344499065       -0.47343177738853
H           -5.08635330315265        2.16792780861462       -1.87170796678030
C           -6.95470483482540        3.05288294604240       -1.18488032914153
O           -6.59532776513510       -0.05472843825578       -1.81013736841836
H           -7.67481662163594        2.25718476035573       -1.41058941574984
C           -7.46168932374947        3.81044569784465        0.03990712410938
C           -6.88633274377398        3.99569214469731       -2.38615942528831
H           -6.77466276369624        4.61226357427149        0.29977945208601
H           -8.43669793551417        4.24589806638198       -0.16585700244619
H           -7.56200115114619        3.15101176739539        0.89785986563001
H           -6.57572656969973        3.46877047055296       -3.28671178872534
H           -7.85977644755714        4.44152647240029       -2.57444728464253
H           -6.17446034245119        4.79546575897201       -2.19544218071068
N           -6.76662927729943       -0.80262645028088        0.34364889796781
H           -7.15674314750163       -1.19268334709775        2.07408231198162
C           -7.60569545237140       -1.91817806582457       -0.04204658897726
H           -8.49718327598308       -1.54373625516165       -0.56548833038392
C           -6.93919357342659       -2.96532515006044       -0.93712834377600
C           -8.08709775230071       -2.59086606307922        1.25517385142367
H           -6.03278964405980       -3.33927621038987       -0.46888767226744
H           -7.63017711996630       -3.79332623923874       -1.06856848211806
H           -6.69916307751042       -2.53915636755795       -1.90754967324898
O           -7.69769967191539       -1.96498167831200        2.35961405918510
O           -8.75437619306461       -3.58700410407174        1.26298930154693
