42
 energy: -62.486133517839 gnorm: 0.000479494212 xtb: 6.7.1 (edcfbbe)
N           -2.39670008124552       -0.59134052137831       -2.00863822484400
H           -2.43567639167468        0.33665699267191       -2.41908775535316
H           -2.46676151513944       -1.26634266775822       -2.76227010745793
H           -1.37508919237361       -0.37530261777993       -0.38778048849612
C           -3.48947264694305       -0.77957353864633       -1.05241686012954
H           -4.45906373334771       -0.43384800404183       -1.43231445309719
C           -3.57241962907326       -2.26606451519755       -0.69850251733244
C           -3.10097073694655        0.01202770977626        0.20272161146305
H           -2.59291849545841       -2.62737974931470       -0.39053945302682
H           -4.27445047868401       -2.43531698982073        0.11270792434941
H           -3.90314260545860       -2.83836471785462       -1.56339397395539
O           -1.78328372391177        0.00779635553710        0.41738071344451
N           -3.81139377106906        0.64410381566034        1.03010908205329
H           -5.36303648605515       -1.11751165701089        2.43379495315521
C           -5.24375114405581        0.81695861220274        1.03655556324629
H           -5.48065736995394        1.11723131553855        2.06825013999311
C           -5.63248247491672        1.96230129676718        0.08844797469588
C           -5.99495913655658       -0.46107595771491        0.74459693718633
H           -4.95819681783576        2.79632720176671        0.29126734304143
H           -5.45566531304305        1.63002732442860       -0.93536588313764
C           -7.08525819443221        2.42939315929927        0.22876310851267
O           -5.92616252647550       -1.41176020215145        1.70565200150053
H           -7.73396221752427        1.54819725821497        0.24852655703306
C           -7.29701933725989        3.22668568986253        1.51371372037907
C           -7.46513951582929        3.28417518468745       -0.97967795834626
H           -6.64242946127884        4.09510683825730        1.53199384810994
H           -8.32602625719740        3.57253668036760        1.57666798656596
H           -7.09157327408480        2.62378190954528        2.39415844582959
H           -7.36420966242582        2.71902526286703       -1.90343672492359
H           -8.49537603015489        3.62191009977900       -0.89789101662432
H           -6.82215373881647        4.15952306250902       -1.04007351210994
N           -6.58183913568763       -0.63683938002939       -0.35430871438248
H           -6.94621257110957       -0.11729656379411       -2.09257037667060
C           -7.22911365135335       -1.87842155464411       -0.70619157172246
H           -6.73138235414988       -2.75607308814933       -0.27746380880721
C           -8.69827538697188       -1.87243509585249       -0.26785765716697
C           -7.18914376120996       -1.96281452211725       -2.23737906702318
H           -9.21040159866865       -1.00536018967618       -0.68015521991547
H           -9.18612094024317       -2.77615674118886       -0.62191499866750
H           -8.75577837905056       -1.83455045174757        0.81738126858191
O           -7.05809383480816       -0.77218114624500       -2.81810462645579
O           -7.28079837013956       -2.98831895264542       -2.84975286535125
