42
 energy: -62.486133505788 gnorm: 0.000480993749 xtb: 6.7.1 (edcfbbe)
N           -1.80576771725765       -1.41199322115034       -0.89178167173393
H           -1.17046732310086       -2.19049933981126       -0.76778417722664
H           -1.24560250320717       -0.56528402325134       -0.93561020839439
H           -3.30739196483236       -0.94388346813676       -1.97355962281165
C           -2.74926559257163       -1.32346119601809        0.22284739892008
H           -3.12716342415821       -2.33599699730585        0.41309503665573
C           -2.16650682562273       -0.75370759621667        1.51274275238787
C           -3.94090154840830       -0.50908601863235       -0.25747067664192
H           -1.75061584236951        0.23522579613309        1.33095240998417
H           -2.95577122012428       -0.66227108160038        2.25057256107473
H           -1.38255011091143       -1.40327976178866        1.89654786429217
O           -4.07638479669266       -0.46388460545558       -1.60229302773067
N           -4.70524087850542        0.02689443934488        0.58168779382321
H           -6.11982094997402        0.37478989300636       -2.24259299974666
C           -5.89651627404314        0.76581780741138        0.19770508274657
H           -6.38087778908055        1.00595054714548        1.15004838531716
C           -5.56108840791119        2.06277813978704       -0.54854210036654
C           -6.83203026486707       -0.16368757710435       -0.55082483757673
H           -4.88470280627225        2.63695847979856        0.08921737295343
H           -5.00831869820880        1.83038157819915       -1.46420802495539
C           -6.78541935597161        2.92209679521419       -0.88953880748264
O           -6.84246426603096       -0.16467653952854       -1.89491164660554
H           -7.52504191594387        2.30719978859030       -1.41433323161584
C           -7.44150078612577        3.48911043180222        0.36709755290965
C           -6.36210996864490        4.06187791829329       -1.81597269082512
H           -6.72132105324903        4.06460054860427        0.94488685769285
H           -8.26460438076701        4.14561808838592        0.09477966422494
H           -7.83754324143084        2.69646388961498        0.99587075569987
H           -5.92521705518525        3.67770942216794       -2.73565722075083
H           -7.21956007904599        4.67646424860319       -2.07869056333332
H           -5.62576432345545        4.69423794229392       -1.32435654026965
N           -7.52080070740390       -0.96427115025343        0.13819239270765
H           -8.21166929288388       -1.46422582015785        1.73213200881300
C           -8.37331219261682       -1.96041700953971       -0.47044101733602
H           -8.97879993651508       -1.54025742785087       -1.28317995831134
C           -7.56264928354816       -3.14154078489169       -1.01651386744265
C           -9.31154611915855       -2.48439659368158        0.62706838081107
H           -6.91987892438906       -3.53986176922896       -0.23364087481281
H           -8.24295130132107       -3.91970734158101       -1.35083982635994
H           -6.94659691799679       -2.81511113905975       -1.85061040802412
O           -8.98648646550290       -2.06548617844662        1.84335066655426
O          -10.23397402825340       -3.21870827560032        0.40365139041286
