42
 energy: -62.486133510837 gnorm: 0.000480428045 xtb: 6.7.1 (edcfbbe)
N           -1.02697026340532       -0.80266713263421        0.81461293290216
H           -0.05172938644510       -0.93457815210735        0.57588281253497
H           -1.33178891000218       -1.62722258208099        1.32476267255552
H           -2.20149859279498        0.53941040514316        1.57488736841612
C           -1.84329622458707       -0.63093776058346       -0.38564944649483
H           -1.34279906659249        0.11924703131433       -1.01252850666266
C           -2.05593247611135       -1.90519862682256       -1.20140322177187
C           -3.16098154975390       -0.01631327863565        0.06348333064059
H           -2.60381683590122       -2.64065017858145       -0.61593704356849
H           -2.62656553880250       -1.67975541958029       -2.09611803838772
H           -1.09667702224289       -2.32875101656883       -1.49295555537191
O           -3.10058034796789        0.67043710798879        1.21218548158641
N           -4.19218383411459       -0.15087679275355       -0.64586606234564
H           -5.23159535380713       -1.31834050658418       -1.72776965214793
C           -5.45998454593136        0.42490767668694       -0.24594711456025
H           -5.49267291979523        0.64915745863889        0.82479847747814
C           -5.68836586503660        1.71712029295723       -1.05361410641222
C           -6.51680864220173       -0.60393374913021       -0.58300156923855
H           -4.86928625564312        2.39971146953920       -0.81488290932170
H           -5.61519442757497        1.46677007669927       -2.11531314088636
C           -7.02505864893963        2.41458428047980       -0.78841381538918
O           -6.17047047330578       -1.49669594774880       -1.51881358463824
H           -7.83504718555769        1.71131544602695       -1.00232943126708
C           -7.14840800095225        2.87418146727526        0.66179070747826
C           -7.16459558560210        3.61074616321934       -1.72914843550438
H           -6.33248841159615        3.54747415685072        0.91706578471477
H           -8.08782684979063        3.40143964594654        0.80707414743196
H           -7.12693377427224        2.02889927854171        1.34356043790241
H           -7.09896716725108        3.29666763180303       -2.76839035202182
H           -8.12531191445329        4.09683276221470       -1.57975381054209
H           -6.37832184132851        4.33872468086572       -1.53931865785220
N           -7.63836226158395       -0.55930093928314       -0.00865847233568
H           -8.89339148222172        0.42145891940270        0.86888109390137
C           -8.69385667181061       -1.49170956936174       -0.33948373395923
H           -8.74376735358618       -1.68857783589662       -1.41825114317460
C           -8.52029993919150       -2.82400826150852        0.39712484678954
C          -10.01905296038630       -0.85661804781750        0.10696224608486
H           -8.41819224746163       -2.64621402722585        1.46582289563734
H           -9.39212598434382       -3.44765899501124        0.22076074143978
H           -7.63069909782355       -3.33336872552553        0.03492890370672
O           -9.86341935382734        0.24940975233547        0.82435536304327
O          -11.09086599591021       -1.32714399936596       -0.15645744880842
