42
 energy: -62.486133510299 gnorm: 0.000479969253 xtb: 6.7.1 (edcfbbe)
N           -1.10888495456501       -0.58093636573979       -1.24201806144013
H           -0.48734757433544       -1.25983256137391       -1.66444531599186
H           -0.62990584779732       -0.18515421068195       -0.43755090834141
H           -2.23454774759652        0.88662892868801       -1.73537351720713
C           -2.35819358857390       -1.20969105904972       -0.81603338883291
H           -2.71134961941251       -1.83010668012234       -1.64950219339592
C           -2.23990393138157       -2.07332932397544        0.43730794569918
C           -3.39538538074022       -0.10102436799434       -0.64361060627484
H           -1.86776326323138       -1.47780494476400        1.26878332237195
H           -3.21932214328759       -2.45673778122033        0.70074532622195
H           -1.55958054067189       -2.90512656254932        0.26495737531625
O           -3.10504062290159        1.02779817954758       -1.30971862210640
N           -4.40156903756425       -0.34211093511025        0.06484491090830
H           -6.71727533219758       -0.57853348207110        2.14424630918761
C           -5.52621103470908        0.52742610106502        0.32088966516743
H           -5.42275055024568        0.85379215526534        1.36713026877040
C           -5.72014286967513        1.75061475504960       -0.58304642557080
C           -6.72968371274955       -0.38950831266760        0.20888939286787
H           -4.82940866275920        2.37654829724645       -0.53937364744250
H           -5.83520684422553        1.38097525855224       -1.60187306683818
C           -6.94860684965400        2.58668776330541       -0.20520908176558
O           -7.26973763692382       -0.83968861910083        1.39791717957633
H           -7.81126739523709        1.92029770020121       -0.09429413569682
C           -6.73992411317294        3.34603943275391        1.10418572333276
C           -7.25481506757574        3.57288803364961       -1.33025172743586
H           -5.87792342338202        4.00550874201237        1.02437955682936
H           -7.61430475195435        3.95209212881536        1.33030959514869
H           -6.57828204122405        2.67086178558536        1.94161270966074
H           -7.46365363414136        3.04051199905950       -2.25440850960677
H           -8.12234439949138        4.17954598867037       -1.08100497895383
H           -6.40687301652792        4.23431076502630       -1.49555994801870
N           -7.13520263118301       -0.72483624342331       -0.92375730453610
H           -9.00422113638325       -0.73561291840368        0.86055116725215
C           -8.20926058959620       -1.63119827869961       -1.23509034971653
H           -8.15444569596960       -1.78217604167717       -2.31946907971101
C           -8.11736979848506       -2.99327863416577       -0.53345280129415
C           -9.58962029797444       -1.02052582600679       -0.94893854212244
H           -8.24583887135618       -2.89861085662266        0.54251481697523
H           -8.88694495724203       -3.65407095237618       -0.92469309273708
H           -7.14055643987143       -3.43045333171005       -0.72774380723933
O           -9.78850319599731       -0.59380082451452        0.29836598714303
O          -10.44702206436286       -0.95040458655228       -1.78227695905394
