42
 energy: -62.486143125557 gnorm: 0.000732940878 xtb: 6.7.1 (edcfbbe)
N           -1.68434556057029       -1.71627053766973        0.21856030675113
H           -1.40941478921065       -2.69027457466614        0.16507958045754
H           -1.43274641991229       -1.37915442591616        1.14411332227566
H           -1.56337189121060       -0.07321055371747       -0.73457248200214
C           -3.12645344629504       -1.56832362925273        0.01965173835194
H           -3.39473978335319       -2.15373778400100       -0.86955847925571
C           -3.98252067170515       -2.01668433927011        1.19909941165590
C           -3.40455429306419       -0.09657267487708       -0.33686525933016
H           -3.70074079482820       -1.46976728203123        2.09726647689150
H           -5.02218434245699       -1.80161370924300        0.97393137390540
H           -3.86302453206552       -3.08271235395396        1.38334075543075
O           -2.31260426691338        0.55184049755484       -0.81177951726635
N           -4.47616034555123        0.48612027756776       -0.17941373017387
H           -7.33054577859659        1.01379609657535       -2.14683237013851
C           -5.73809204741778        1.06689260548999       -0.23785314888278
H           -5.96874382181662        1.39339586204613        0.78654258677007
C           -5.75393902443237        2.30975111225195       -1.15797464099832
C           -6.79293816180267        0.01693761450074       -0.59811519996847
H           -4.83664268091678        2.86131213925305       -0.94576076537261
H           -5.67669481542733        1.99271696045508       -2.20338434879740
C           -6.96079481275755        3.23776228253248       -0.94651153249214
O           -7.52896339083540        0.17342701834955       -1.71360785618332
H           -7.86879464278541        2.64130952550784       -0.79148872869508
C           -6.75997587284580        4.10950881276563        0.29155632178501
C           -7.16649057089274        4.12292125054711       -2.17586680198754
H           -5.89434911182758        4.75525979313635        0.16155515720891
H           -7.63299856753220        4.73571680538462        0.46018139116607
H           -6.60340444557362        3.50116649261921        1.17896133200047
H           -7.37393440656429        3.52867101400096       -3.06439950282912
H           -8.00234786647823        4.80101524345327       -2.02087021144548
H           -6.27472427764298        4.71687649649522       -2.36355004787757
N           -6.89027252138452       -1.01078432709506        0.12789676465171
H           -6.97334434124772       -1.58573564049459        1.88293577186842
C           -7.81197805729457       -2.07841053045125       -0.19200874334755
H           -8.73330356215852       -1.70126421932531       -0.65574797876472
C           -7.16972168312410       -3.10005554905334       -1.13573340335023
C           -8.19232376710031       -2.78345115925696        1.11814428197137
H           -6.23298563162215       -3.45780736129028       -0.71406995376104
H           -7.84672211988222       -3.93972423969994       -1.26466039655653
H           -6.97193228324983       -2.64096314735920       -2.10112430912093
O           -7.56264186096056       -2.31078063464006        2.18922730879608
O           -8.98342969052625       -3.68308863342001        1.16691323679803
