42
 energy: -62.486133504225 gnorm: 0.000481571214 xtb: 6.7.1 (edcfbbe)
N           -1.27238819018151       -1.38287458167570        0.34060724621095
H           -0.38273308309022       -0.91191456755271        0.24266537244096
H           -1.10710257518418       -2.38164726526249        0.31604642634040
H           -2.51670156448818       -0.75357752777614        1.55751428206441
C           -2.22625327871428       -0.98144977309322       -0.69964032144869
H           -1.77678565462524       -0.27557268893559       -1.40560400263738
C           -2.77806572416047       -2.17429060831988       -1.47751566279780
C           -3.38733952358439       -0.26887072368716       -0.01447130553104
H           -3.20870458467933       -2.90066486395897       -0.79104281916668
H           -3.55987375939917       -1.82764750797047       -2.14554222678876
H           -1.99054663091747       -2.65353969631037       -2.05609663162125
O           -3.36113117246883       -0.29957661477867        1.33065585444814
N           -4.27709266748180        0.26561564590886       -0.72135533022199
H           -6.79549842705216        0.68650457002730        1.89152267321161
C           -5.40650711412499        0.91357409120787       -0.09597647347824
H           -5.11885525284271        1.35848371357849        0.87061471351503
C           -5.91319471676555        1.99136622559438       -1.06733543313581
C           -6.49625589077398       -0.10630811229999        0.13403372202398
H           -5.08699761840595        2.67387381250018       -1.27331420799235
H           -6.15899123616423        1.47129001028414       -1.99326571181209
C           -7.12875850153203        2.78336083674211       -0.57623285064076
O           -7.18605508975449        0.00551844704615        1.33042296772126
H           -7.90200415645607        2.08369804226893       -0.23950579107928
C           -6.76875123789748        3.72062128674161        0.57617845097631
C           -7.70723458459741        3.59288843701479       -1.73528539939765
H           -6.02549346536215        4.44534773919595        0.25029814650548
H           -7.65015365598859        4.26270974800419        0.91161325182090
H           -6.36210733452027        3.18106401261912        1.42903465953081
H           -8.02291756814781        2.93349086844693       -2.53952657981552
H           -8.56898604887767        4.16875061048551       -1.40600285113101
H           -6.96124056259445        4.28156012005805       -2.12602388695592
N           -6.72890166296293       -0.97043294265278       -0.73582503027436
H           -8.81990635348736       -0.35331286465565        0.65030940104556
C           -7.70599918582659       -2.02540429425286       -0.68532697679100
H           -7.49858317661280       -2.65262691233169       -1.56020443101552
C           -7.63825262655694       -2.89122780306366        0.58058158911705
C           -9.14390554960574       -1.50898277957954       -0.85058608361324
H           -7.89846794040420       -2.32029702634417        1.46926847959694
H           -8.32480902178055       -3.72869653598453        0.48448436945637
H           -6.62691524359339       -3.27374295529476        0.69983623819111
O           -9.53054362865857       -0.57650205754600        0.01960756821871
O           -9.88518599194214       -1.93258315544896       -1.69068020222467
