42
 energy: -62.486133507700 gnorm: 0.000480547960 xtb: 6.7.1 (edcfbbe)
N           -1.21843162298046       -0.46992234979013        0.79316922882457
H           -0.41756782854812       -1.03113217613337        0.52924840992036
H           -1.26809451986224       -0.47058578229225        1.80867047442718
H           -2.02288631735595        1.22875792293384        0.40536240505151
C           -2.45263415431132       -1.03239031009503        0.24084043507112
H           -2.26047524138037       -1.26388513755267       -0.81470256869719
C           -2.95049662505270       -2.28910360765459        0.94964984809831
C           -3.49639791602562        0.07437888150517        0.25768287321671
H           -3.15455976746164       -2.07239346487149        1.99609055097379
H           -3.86939425321431       -2.63196804428257        0.48767376513831
H           -2.20236414598787       -3.07727289479463        0.89038083120493
O           -2.99248981035034        1.32411199848810        0.30819700177506
N           -4.71594474141253       -0.22200171777950        0.22091266260342
H           -7.82087974757135        1.63188536355615        1.20613307264967
C           -5.74468817241810        0.78998049523540        0.19039100058080
H           -5.60297513802708        1.51090368240406        1.01059652764328
C           -5.72111725040607        1.53713324549570       -1.16068480301632
C           -7.06664593382895        0.07773493042637        0.34980388662070
H           -4.73648840048119        1.99473574053872       -1.26914680256750
H           -5.83341129154815        0.77998545723680       -1.93950603771031
C           -6.79716691672535        2.61324020007020       -1.33650903243163
O           -8.09264314626019        0.74867235018182        0.92819344976385
H           -7.78199098250765        2.17689880176200       -1.13661512967783
C           -6.57098382598628        3.80166040493283       -0.40246042728789
C           -6.78986478138362        3.09690771433507       -2.78631823634252
H           -5.60559364742459        4.25889116252776       -0.60874242921867
H           -7.34440863791431        4.55193480068442       -0.55186585378692
H           -6.58489651535655        3.51067653737860        0.64620130481816
H           -6.99037437308594        2.27307321218185       -3.46695652483225
H           -7.55111592405870        3.85884720596089       -2.93711983805616
H           -5.82172331046718        3.52399030376710       -3.03865747527738
N           -7.15807535385255       -1.10591417936332       -0.05280190506241
H           -6.20204192417452       -2.56010827379643       -0.30815533520509
C           -8.33514486483658       -1.92326426197456        0.06293324504450
H           -8.86899588114531       -1.75967717067728        1.00840779334299
C           -9.30267216043930       -1.68810603736171       -1.10092337173233
C           -7.84287876919785       -3.38276142797979        0.01545944010777
H           -8.77468722502829       -1.78876230771544       -2.04687788629245
H          -10.10031259256338       -2.42440626699824       -1.05789386381237
H           -9.72763466466576       -0.68931843533889       -1.03617265048414
O           -6.54582258072201       -3.48958784166572       -0.23552399617334
O           -8.56922029651119       -4.32386440911078        0.18057082064114
