42
 energy: -62.486133520986 gnorm: 0.000478327080 xtb: 6.7.1 (edcfbbe)
N           -0.96926294125055       -0.43995053638790       -1.03476326641167
H           -0.32040318732400       -1.00041426516718       -1.57313958424412
H           -0.58743959286791       -0.34479850936892       -0.09799423604177
H           -1.97285987003764        1.18018344460659       -1.19916248643996
C           -2.28429914336705       -1.07798410427305       -0.97148992502095
H           -2.54178172997908       -1.39654333357594       -1.98938869073189
C           -2.36837927950846       -2.27978879261324       -0.03500018600485
C           -3.29927313956975       -0.00217873502573       -0.59698860958484
H           -2.07622828216941       -1.99094899986842        0.97274619421702
H           -3.39304560684371       -2.63329281949028       -0.00760357553575
H           -1.71490252817594       -3.07930301471324       -0.37831265885514
O           -2.89095148319127        1.25323156187472       -0.86598673310272
N           -4.39057781284006       -0.36015250883472       -0.09575514678969
H           -7.10811899864435        0.22912466863958        2.08574841158029
C           -5.48795140096840        0.50135243415027        0.26553504922720
H           -5.29837446933739        0.87282791290166        1.28411591929939
C           -5.73883851342480        1.68894456543729       -0.68341350234351
C           -6.72626950487840       -0.36970730755622        0.26688680842823
H           -4.85205146842223        2.32165603466842       -0.70003091971080
H           -5.87969174752241        1.26471964981905       -1.67897332544785
C           -6.95916937144875        2.54120260377264       -0.31784429106304
O           -7.51390950702546       -0.32247484083728        1.40667360052172
H           -7.83190342994832        1.89110825191522       -0.19067472260574
C           -6.73524182255617        3.33341309756539        0.96969718312379
C           -7.25947735487876        3.50385865522532       -1.46529331382728
H           -5.87400470261047        3.98941514550688        0.86065241103342
H           -7.60643359741520        3.94599910839332        1.19074084491388
H           -6.55966562710062        2.68370776262958        1.82483989343526
H           -7.47353942646579        2.95309799645759       -2.37757227194346
H           -8.12229379382513        4.12211963957087       -1.22876046154540
H           -6.40702392175699        4.15519179643204       -1.64645353067227
N           -6.98605790619256       -1.05936870791215       -0.73982730960536
H           -9.11098259724184       -0.34696236113027        0.55851032482824
C           -8.09919678416701       -1.95189538885095       -0.92906846349022
H           -7.89133360066203       -2.47825674296812       -1.86786825193817
C           -8.28550367617772       -2.98265865288992        0.19284782639674
C           -9.42286570661924       -1.19949564311511       -1.13525777970013
H           -8.55654841392841       -2.50653658431418        1.13257753062668
H           -9.06733851518384       -3.68477046511991       -0.08619507242963
H           -7.35459209059246       -3.52621180158228        0.33674760426356
O           -9.77158694234113       -0.35995841532713       -0.15992858333411
O          -10.11682176272064       -1.36952744360658       -2.09663752428437
