42
 energy: -62.486133517286 gnorm: 0.000479266632 xtb: 6.7.1 (edcfbbe)
N           -1.36796668412703       -0.80345086343022       -1.46249840401891
H           -0.73753786107446       -1.54932849838687       -1.73037357240797
H           -0.82813948913296       -0.11657123959997       -0.94298716244327
H           -2.71573973295981        0.32451428761380       -2.21952157029793
C           -2.45737026436576       -1.31079919812503       -0.63076980071399
H           -2.85276933596968       -2.20767586951117       -1.12514442933344
C           -2.05067791240514       -1.66262371772174        0.79836855955334
C           -3.57778077836982       -0.27111619014128       -0.66576503719961
H           -1.65907262637592       -0.78205426021293        1.30354628761590
H           -2.91745572172952       -2.01487410686006        1.34632519781166
H           -1.28774984122634       -2.43889365229316        0.79578329259596
O           -3.52842452644766        0.55016404085094       -1.72199708189648
N           -4.43164175437431       -0.29346499715347        0.25496766073827
H           -6.19946897210674       -1.18374851886933        1.87770552827493
C           -5.60078772050962        0.55640561490185        0.37598379155875
H           -5.60177372310779        0.88949976527494        1.42497625539679
C           -5.72820440131752        1.76781074722578       -0.54635165098542
C           -6.74446212784612       -0.42010105265577        0.19225279057644
H           -4.80100577961464        2.34119645563747       -0.50758384638775
H           -5.86724689576362        1.40123502238565       -1.56182468548196
C           -6.90595674968192        2.67520015887502       -0.17186454515494
O           -6.93958285503615       -1.26757482840739        1.26337396643285
H           -7.78797359132992        2.04873686563414       -0.00470576368139
C           -6.62293557675438        3.48355949676953        1.09321469130222
C           -7.20610203221145        3.62130923803855       -1.33233740167940
H           -5.74634368139091        4.11293548602922        0.95123176741041
H           -7.46957591808123        4.12523188942850        1.32640243940613
H           -6.44712351031101        2.83962729781534        1.95179203350757
H           -7.46916375574413        3.05601956150378       -2.22224104198214
H           -8.03676016869485        4.27830985735091       -1.08507161988841
H           -6.33592199514932        4.23516205810394       -1.55605486149235
N           -7.35726391986210       -0.48359198897760       -0.89362708339715
H           -8.75653655184629       -1.28394383369708        1.12767023943253
C           -8.38987500952389       -1.41830201623596       -1.25822622404295
H           -8.57399279834863       -1.24348508352772       -2.32460300308660
C           -8.01563867101894       -2.89211772796710       -1.04742526792169
C           -9.71641733575337       -1.14153605901969       -0.53424808622597
H           -7.89096585494129       -3.12544005284678        0.00772004498816
H           -8.79673640690137       -3.52569407562769       -1.46020347947054
H           -7.07999526528013       -3.10215368597202       -1.56099064195615
O           -9.65934582331966       -1.12166810732393        0.79709459712246
O          -10.74670765186477       -0.97873401172062       -1.12305769810607
