42
 energy: -62.486133507649 gnorm: 0.000480077122 xtb: 6.7.1 (edcfbbe)
N           -1.33090109415504       -0.91433570889103        0.97287814416369
H           -0.38976485075551       -1.22398387768184        0.76290168995998
H           -1.73143947023962       -1.57935194219967        1.62916462285619
H           -2.33068548907387        0.66462684493392        1.48931980721534
C           -2.14800218253492       -0.86603368352812       -0.23861453503663
H           -1.57126630602938       -0.31969462670410       -0.99681303576417
C           -2.54733269992748       -2.23128222864205       -0.79445455937159
C           -3.36879634506321       -0.01761406684732        0.08357795219348
H           -3.11266213380894       -2.78688331066479       -0.04935414344691
H           -3.17648711888733       -2.09843586613482       -1.66766404634949
H           -1.66340450519265       -2.80305197700695       -1.07030130273299
O           -3.20971069203049        0.84428242673242        1.10025744476788
N           -4.42038284035096       -0.15251242786508       -0.59304560783935
H           -6.10095182988457       -0.23881260211063       -2.44758356229103
C           -5.58926159087164        0.65883385308423       -0.30699375798587
H           -5.65217076646096        0.90083697310845        0.75998306065227
C           -5.55512631750236        1.95528649873673       -1.13071476997163
C           -6.75879456176301       -0.22288838724338       -0.67251198771460
H           -4.76852015160636        2.58955343371664       -0.71697701733366
H           -5.27046870945451        1.71789203138616       -2.16100371445390
C           -6.88378336207628        2.71957470141072       -1.13609470440351
O           -6.87357699511583       -0.56479105681710       -1.96775208111957
H           -7.66182780190730        2.07338069917441       -1.55847765479499
C           -7.30789591412675        3.12352532440111        0.27342896810480
C           -6.75085057232771        3.95670744998997       -2.02313382756039
H           -6.51607203055087        3.68792439519355        0.76129925378916
H           -8.19769663457922        3.74725867872680        0.23072079833537
H           -7.53747374085224        2.24891266298746        0.87586215403277
H           -6.46327953807947        3.68094583242040       -3.03560642932635
H           -7.69557211090231        4.49249651928262       -2.07128663372545
H           -5.99541494830262        4.62935828158844       -1.62242094866122
N           -7.49721436667756       -0.67951004926641        0.23991769178784
H           -8.13237119590581       -0.59248204407374        1.93265120289723
C           -8.58028337753352       -1.59620035903294       -0.04533553443255
H           -9.16388381795965       -1.27915220756376       -0.91845677841432
C           -8.06615161865702       -3.02012817373241       -0.28496688960281
C           -9.49960315567728       -1.61249770252731        1.18459218839363
H           -7.44499635775434       -3.33475387464858        0.55129213071797
H           -8.91208843072439       -3.69568971555303       -0.37524722522877
H           -7.47556173362540       -3.05241373986036       -1.19677542901063
O           -8.99389571885908       -0.96899541092343        2.23034512177292
O          -10.56056817759246       -2.17192738968141        1.20232898099132
