42
 energy: -62.486129642604 gnorm: 0.000473539893 xtb: 6.7.1 (edcfbbe)
N           -2.18893466591515       -1.39749049976765        1.51336022229988
H           -1.64377111839970       -0.57708774016501        1.75557453277084
H           -1.56946576802478       -2.19874749412487        1.51787694012210
H           -3.97027402983474       -0.98423416553583        2.16998406134961
C           -2.82108529735462       -1.23459084540036        0.20635266756825
H           -2.17470396838393       -0.77082411035578       -0.55137438858374
C           -3.30422326066363       -2.59350305063080       -0.30419639858211
C           -4.04571576441267       -0.36128134241721        0.40563407851550
H           -3.95855869999766       -3.05662890621000        0.43162965530343
H           -3.85177410396111       -2.45893690976693       -1.23241409526067
H           -2.45845460412103       -3.25332062615066       -0.48609778508437
O           -4.58332871142930       -0.43717639078193        1.63420775986136
N           -4.46136371953825        0.34708564427131       -0.54599536192540
H           -7.41344737126285        0.89846219327619       -2.23466901859563
C           -5.70725367940959        1.08533513512347       -0.43857473920020
H           -5.80352211610265        1.50970384425127        0.57186703042834
C           -5.68421886533988        2.20580265823116       -1.47953483224520
C           -6.84718757678599        0.08858463351241       -0.58802316346598
H           -4.71603661596174        2.70178897827545       -1.38989175158534
H           -5.70365463596585        1.76814289754201       -2.48270661296370
C           -6.80059077120202        3.24769145182883       -1.30723833241714
O           -7.66096102973335        0.16262595014196       -1.66021912330904
H           -7.74300024501915        2.74429617401241       -1.05955986748402
C           -6.47301465048496        4.21038753120957       -0.16748889269417
C           -6.99397620443751        4.02893431988229       -2.60671035668480
H           -5.56023201930603        4.75994457960685       -0.38759556692628
H           -7.28031741727572        4.92649552091848       -0.03285951939132
H           -6.33534370261644        3.67579438146018        0.76887813440763
H           -7.28881765535112        3.37322218570237       -3.42419899866622
H           -7.76610301804927        4.78470197150593       -2.48445356700064
H           -6.06864638457493        4.52787173189495       -2.88633268823873
N           -6.95670457085149       -0.80206736203065        0.29220710298930
H           -6.35061036705164       -1.46838573757622        1.87915259812570
C           -7.93475869903191       -1.85936259783540        0.25660139318236
H           -8.95478480293727       -1.45786490416279        0.19652744159057
C           -7.72120336970826       -2.83647247283308       -0.90467801391630
C           -7.79378791523697       -2.63501498389479        1.57803659473244
H           -6.69355538924825       -3.19533282086183       -0.90166267829769
H           -8.39340779487085       -3.68149285930531       -0.78468032609017
H           -7.92201627955671       -2.34407597973964       -1.85219857545963
O           -6.78287156618578       -2.23544611241885        2.33446803825613
O           -8.52451283096358       -3.53955969532317        1.87993163742583
