42
 energy: -62.486143125543 gnorm: 0.000732958784 xtb: 6.7.1 (edcfbbe)
N           -2.68073769933255       -2.45015307712910        0.98471065914392
H           -3.00814239421819       -2.41743330180806        1.94503877810477
H           -1.75253998035618       -2.85628381533908        0.98529280003703
H           -4.36559501651362       -2.59003570690905        0.04265028040427
C           -2.66126972258227       -1.11073190115443        0.40138998651308
H           -2.23319268461087       -0.34099265724991        1.05813602135788
C           -1.88279345399003       -1.13681194077920       -0.91469041458990
C           -4.10769723689511       -0.73749760792540        0.10751196710148
H           -2.30310175131074       -1.88529992181736       -1.58321004984295
H           -1.93858019673026       -0.16242107801141       -1.39060428566551
H           -0.83831097924366       -1.38017948603775       -0.73185013809628
O           -4.89807420131158       -1.79121384928317       -0.15437156509874
N           -4.41413809719961        0.47806635836962        0.08821407815390
H           -6.89662743353148        0.35367794158951       -2.22556200785306
C           -5.72232577790425        1.04436417494564       -0.14829196440929
H           -5.94666595086313        1.59229526721288        0.77598834656980
C           -5.57989276840470        2.05898792565837       -1.29251110452537
C           -6.85122789686450        0.04278103825871       -0.33333892324812
H           -4.69528559877547        2.65795825873152       -1.06946960822217
H           -5.36176734780324        1.52864880046624       -2.22667935272703
C           -6.78881215971129        2.98802658628164       -1.47441386445590
O           -7.36453950757158       -0.16665687396668       -1.56028233632197
H           -7.71289975416618        2.39857387174748       -1.46543802337522
C           -6.87205312756845        4.01270994111796       -0.34554384390580
C           -6.68643923498251        3.70567678551921       -2.82020227990501
H           -5.96669961178746        4.61476284502680       -0.31251202924319
H           -7.71950230405924        4.67576880730020       -0.50311607518838
H           -6.99949190033451        3.52707379717275        0.61821793180285
H           -6.67840089767240        2.99703130836584       -3.64635753249869
H           -7.53115767322915        4.37607831719823       -2.95808702343377
H           -5.77220669134736        4.29356580329002       -2.86469174846704
N           -7.24551779269775       -0.56344908936379        0.69791253071502
H           -6.89245758218043       -0.95068662907638        2.38053746520487
C           -8.28166119868610       -1.56828661454086        0.72050177792463
H           -9.25718910273317       -1.10040144359212        0.53159696659495
C           -8.09321723967637       -2.72906736107503       -0.26028120112341
C           -8.30571061714275       -2.13120773281355        2.15376358072182
H           -7.08005776676909       -3.11456833433085       -0.17869609678974
H           -8.79978350142902       -3.51553223617522       -0.00905307977886
H           -8.26287446919405       -2.39903745220681       -1.28065656446029
O           -7.37242304230481       -1.61122672116034        2.94120924531799
O           -9.08512992437710       -2.96889865643703        2.51617370712389
