42
 energy: -62.486133513870 gnorm: 0.000480339666 xtb: 6.7.1 (edcfbbe)
N           -1.41540535197285       -1.18941375634641       -0.68162481302027
H           -1.19023755828033       -1.47915318015440       -1.62380075026130
H           -1.08570840175661       -1.91057313697625       -0.04885979942410
H           -1.17034540025451        0.21546308632799        0.45766660129522
C           -2.85362450229516       -0.96736241690388       -0.50175094398016
H           -3.30170635349342       -0.80004290540259       -1.48495537776035
C           -3.53636612408723       -2.15211642699712        0.18729513515166
C           -3.03491691044501        0.29417957179081        0.38444838753703
H           -3.05571473219812       -2.34514437322873        1.14534047514594
H           -4.58499400763350       -1.94493822508623        0.37687479111487
H           -3.46403619310887       -3.04510429333294       -0.43183059424094
O           -1.88048439575318        0.74036011919821        0.88954669538979
N           -4.08111810927190        0.84488636394609        0.79969229864138
H           -5.08323581389228        0.10802780369381       -1.86647021733682
C           -5.43989351575760        0.97058283551362        0.39544216403168
H           -5.99165343925088        1.14124355554875        1.32671374239129
C           -5.53744344467600        2.24438142456750       -0.47373175089088
C           -6.15006068971583       -0.17218006956761       -0.30497717362402
H           -5.10297430200379        3.05802366028963        0.10791945285144
H           -4.90902854118537        2.12017268440779       -1.36291561596284
C           -6.96022407585068        2.61830261662113       -0.90453762851574
O           -5.73179577573216       -0.52998057662269       -1.54338737859270
H           -7.40033456148050        1.78365641559199       -1.46206615017752
C           -7.85307114719846        2.91755940628335        0.29592604050955
C           -6.89905692103260        3.83405495700862       -1.82850749386304
H           -7.40187547351196        3.68424768541959        0.92113847989973
H           -8.82279285824723        3.27513989973392       -0.04134879187452
H           -8.01406430812872        2.02585033966226        0.89457263951247
H           -6.28629549972254        3.63024743585730       -2.70407365926798
H           -7.89643511889888        4.10298724734545       -2.16676935174162
H           -6.47371515570401        4.68565238331642       -1.30284884411589
N           -7.20048831095124       -0.63689766110320        0.21311463935025
H           -8.54319686551475       -0.52093260778470        1.45780144265561
C           -8.00840364169175       -1.62890192545721       -0.45922292043775
H           -8.13282695813356       -1.39405266851523       -1.52466335139109
C           -7.41750743960100       -3.03750219640648       -0.33445278601769
C           -9.39058069604557       -1.62308031139725        0.21107367918608
H           -7.20609990033606       -3.26136009949010        0.70942128879693
H           -8.13491494249648       -3.75915217771723       -0.71492246230025
H           -6.49744559837725       -3.10824016515161       -0.90912031410451
O           -9.43533033580639       -0.91665344951113        1.33390952119069
O          -10.33126892417588       -2.21846492665041       -0.23388264173155
