42
 energy: -62.486133516332 gnorm: 0.000478623740 xtb: 6.7.1 (edcfbbe)
N           -1.53315410042165       -0.63735441571697        0.00338832557799
H           -0.86026327660454       -1.38526016355858        0.13426346841148
H           -2.07321589797366       -0.53248083720714        0.85585573737114
H           -3.87360061056327       -0.10769279744786       -2.83752179841638
C           -2.44426358983434       -0.96144715119564       -1.07680522660687
H           -1.95245265782315       -0.68003272820092       -2.02160229023400
C           -2.83739044489492       -2.44987582710559       -1.14426259615376
C           -3.72916532875458       -0.17647139544820       -0.92169899445496
H           -3.29034039996985       -2.74417625710427       -0.20094418947860
H           -3.55818740011743       -2.62490879107022       -1.93912801592481
H           -1.95664340931869       -3.06297130748069       -1.32698084358103
O           -4.33904688798746        0.21742190422600       -2.05692007502187
N           -4.15576490666955        0.02359738377473        0.24428760512724
H           -7.54179522676950        0.45598840973749        1.70315283524592
C           -5.42640345367623        0.63330243420890        0.53918446419063
H           -5.41187187913569        0.79175705325237        1.62777020895856
C           -5.64907484411797        1.98416150232483       -0.17339949384642
C           -6.55131768910963       -0.32234043983501        0.21430897794575
H           -4.72305375870968        2.55467542734160       -0.07046185019751
H           -5.80015594025748        1.77848023117474       -1.23309411326434
C           -6.81787044228648        2.82853109357743        0.34648780226589
O           -7.68094292270817       -0.19545370346831        1.00485352304920
H           -7.74006908315163        2.23697377155237        0.31742172127639
C           -6.58290747566684        3.32891704053656        1.77168694148809
C           -7.01554824521285        4.02380052178524       -0.58582135870114
H           -5.68132947076750        3.93637105317796        1.80902086585596
H           -7.42063011646938        3.94171870882282        2.09781104054710
H           -6.46698253256910        2.51448892129606        2.48455000679312
H           -7.23046980948135        3.68836536886543       -1.59729271258733
H           -7.84501604290318        4.63950589733109       -0.24558441112316
H           -6.11827177001257        4.63817763390969       -0.60985286635205
N           -6.43687772542769       -1.13642968108719       -0.72500210580790
H           -8.87779211560538       -0.37685667039349       -0.36497468906063
C           -7.40484727411519       -2.10045456781628       -1.17547606658464
H           -6.87448095299731       -2.72833829228115       -1.90117135589103
C           -7.98646839397152       -2.99384555214208       -0.07171558977653
C           -8.56047295955398       -1.43338361913858       -1.93749683494649
H           -8.56073687288286       -2.41692895656000        0.64956180193080
H           -8.63333339480202       -3.74464853277113       -0.51900017716922
H           -7.17488198136290       -3.49321238187599        0.45272751640904
O           -9.23706891150500       -0.50489709627344       -1.26289383802443
O           -8.85203106326922       -1.73879918216483       -3.05829622946142
