42
 energy: -62.486133485332 gnorm: 0.000481738960 xtb: 6.7.1 (edcfbbe)
N           -1.32639409543937       -0.52910628533839        0.19347210853562
H           -1.09480753284453       -0.23520086309629       -0.74986859128590
H           -0.61232127093721       -1.17865820480869        0.50125417508131
H           -2.25775753361687        1.00461695228007        0.90261701728745
C           -2.64647381580927       -1.15963683445528        0.22922106897455
H           -2.86448214015183       -1.78422465146912       -0.64718695286150
C           -2.78587100036202       -2.01303134288900        1.49012089215615
C           -3.67878778760032       -0.04691489208400        0.28941428992078
H           -2.59002742826308       -1.41041237923757        2.37448272510940
H           -3.79347742252375       -2.41268161708140        1.54664898074627
H           -2.08001750727426       -2.84052180118366        1.46635402523116
O           -3.21831934320101        1.12976060485026        0.75609453863701
N           -4.86409967634347       -0.29662556546193       -0.04005365004765
H           -8.12858881439767        1.60604027785957        0.55389241308964
C           -5.89543421648100        0.71073260994389        0.04798905768109
H           -5.79895668232321        1.29642901335213        0.97549632988059
C           -5.75917124389746        1.65075483417128       -1.17138521663098
C           -7.21793804513242       -0.01951175543748        0.05728725524602
H           -4.73818912414018        2.03878782664343       -1.15305375469944
H           -5.86520421330540        1.03121824346796       -2.06479714952763
C           -6.72506392914291        2.83738636363444       -1.26043145333547
O           -8.33722045903452        0.68636740022024        0.35084900455001
H           -7.75593763871173        2.47073111360318       -1.31640179315022
C           -6.57989221258176        3.78799474061488       -0.07232683695989
C           -6.44557619088956        3.60088526323556       -2.55576982315016
H           -5.56068207243916        4.16480419315427       -0.02070552939497
H           -7.25255220539715        4.63594256365583       -0.18378595391541
H           -6.80399741434028        3.30707909518871        0.87849206891307
H           -6.56842818081834        2.95175902276762       -3.41932782219476
H           -7.13027104660766        4.43967136600390       -2.65783334384229
H           -5.42835360874323        3.98645095718163       -2.55737555693265
N           -7.21910253757403       -1.25931963285605       -0.12762862709315
H           -6.19910171829067       -2.70422861947313       -0.14707860754997
C           -8.38044763851336       -2.10348657650964       -0.07382487626234
H           -9.04483848748469       -1.84936116467966        0.76273335173893
C           -9.18452631683648       -2.05483986992969       -1.37694410921926
C           -7.84854407395981       -3.53563814314958        0.12539949336204
H           -8.53109247255482       -2.25984807525276       -2.22222494113613
H           -9.96950637511095       -2.80512259033596       -1.34278968553397
H           -9.62908783427162       -1.07062568336341       -1.50164462782797
O           -6.53123353301337       -3.62682717682468        0.01343739949544
O           -8.56440460884463       -4.47353188529898        0.34682415817929
