42
 energy: -62.486123776877 gnorm: 0.000705814989 xtb: 6.7.1 (edcfbbe)
N           -1.07787497042177       -0.60447278238954       -1.01750498494639
H           -0.43671403561024       -1.26557913467763       -1.43916002279139
H           -0.68730244623240       -0.32865842976846       -0.11977174101423
H           -2.10456472930427        0.96117013844780       -1.49249666242048
C           -2.39442280248403       -1.21023355465552       -0.81830925232498
H           -2.67895817473213       -1.68291103586214       -1.76776886900274
C           -2.45958880949846       -2.24985482013034        0.29702319911471
C           -3.38835438485551       -0.07332349188118       -0.59637217014230
H           -2.16238856350794       -1.80408718398940        1.24370599389063
H           -3.47842907261132       -2.60802277975390        0.39109440509922
H           -1.80059677495332       -3.08732093953064        0.07649007978046
O           -3.00478623477738        1.09822453602280       -1.13430128483842
N           -4.44121295469351       -0.31966598027823        0.03689890245931
H           -6.52612935705866       -0.73124034232655        2.10300698280302
C           -5.54106986159772        0.58084492761142        0.30330001256582
H           -5.42352764199492        0.92629364609585        1.34114018321355
C           -5.67273166196926        1.79082558341599       -0.63068705521559
C           -6.74383597438636       -0.33941762827039        0.22735963759311
H           -4.81829404507235        2.44624599800767       -0.45926916142859
H           -5.62077207193295        1.42304879686858       -1.65561805931302
C           -6.96483157865882        2.59832390541678       -0.46512934588145
O           -7.12261746140735       -0.94619121580713        1.37598932592497
H           -7.79867223637046        1.99477819929256       -0.84006032664465
C           -7.24458384421038        2.97352665821065        0.98842731321942
C           -6.87584526619310        3.85933263511847       -1.32378825460509
H           -6.37967538705111        3.46754387151473        1.42739979876753
H           -8.08987918457489        3.65644443820748        1.04178127087285
H           -7.49012788523141        2.09812999862610        1.58539881386878
H           -6.66898476335445        3.60131409443935       -2.35935129287874
H           -7.81093732327094        4.41372075236721       -1.28722556192569
H           -6.07864315193031        4.50702697843720       -0.96546547390034
N           -7.28128540025775       -0.58153113360660       -0.88534303639702
H           -9.13831537315903        0.56400086428364       -0.30794517526783
C           -8.34180605666433       -1.56334528584634       -1.00206190823111
H           -8.74958035811249       -1.43688987010632       -2.01700984744031
C           -7.83120706351749       -2.99391508071248       -0.84402147228552
C           -9.50350128607870       -1.29940243230940       -0.03639719711680
H           -7.42117882383060       -3.13043593540201        0.15259428831645
H           -8.65657915099496       -3.68687511345883       -0.97859348017628
H           -7.05778383244357       -3.19325023832664       -1.58105511953037
O           -9.77712462446931        0.00089135006289        0.15728315100408
O          -10.16147664553061       -2.15708878551109        0.47474850516735
