42
 energy: -62.486133510792 gnorm: 0.000480367015 xtb: 6.7.1 (edcfbbe)
N           -0.90362368042713       -0.54228308956473       -0.19403303961925
H           -0.09527927814260       -0.77916599583295       -0.75673096560780
H           -0.87561942291997       -1.12477140043526        0.63875723682146
H           -1.84882350931493        1.00748860725843        0.48587381147761
C           -2.14253429923581       -0.79584382816564       -0.93123876302923
H           -2.02332944051245       -0.35322073831266       -1.92854316453579
C           -2.51728714482183       -2.26798392542619       -1.07649070513491
C           -3.24921477559354       -0.01198683204246       -0.24360830674232
H           -2.57365773085223       -2.73761705066746       -0.09631724280353
H           -3.49330605466822       -2.33741508527090       -1.54425777600669
H           -1.78064397060435       -2.79409174588847       -1.68022191600011
O           -2.82626747736310        1.03677540406197        0.49487806500876
N           -4.44437663781656       -0.35867231929745       -0.40248118498412
H           -7.25084064237039        0.15376708710898        1.88452391778117
C           -5.52635111205802        0.38713665431116        0.18580608008117
H           -5.30857485528708        0.61684145842666        1.24203180381229
C           -5.74231276662686        1.70286151263933       -0.59080140448532
C           -6.77961129801707       -0.44711464843152        0.08552766287567
H           -4.81322631003284        2.27378834364698       -0.54556140179782
H           -5.92503388298701        1.42067281619890       -1.62903158843998
C           -6.89816970222559        2.57089331468381       -0.08357558091080
O           -7.62727784106291       -0.39401709362020        1.18519448824088
H           -7.80455970116087        1.95969093634244       -0.01059121427276
C           -6.59290229966068        3.18267577164535        1.28319014856884
C           -7.17187184650498        3.68381998738501       -1.09374297366928
H           -5.70858552722163        3.81329757458390        1.22079907516306
H           -7.42783168922192        3.79449237201589        1.61750451592804
H           -6.40952389416739        2.42355767599940        2.04107691560463
H           -7.44288872802741        3.26379308305322       -2.05896570706914
H           -7.99005578328404        4.31386628004941       -0.75294423905532
H           -6.28847715455828        4.30560575289385       -1.22253243042583
N           -7.00921703010839       -1.10268704083796       -0.94947215406158
H           -9.17162175150953       -0.33670853897171        0.24528021272319
C           -8.14227385061558       -1.94659752587199       -1.22173061152278
H           -7.90234584077299       -2.46044965223015       -2.15978035951787
C           -8.43035733010231       -2.99246033495547       -0.13570944675197
C           -9.42329776986497       -1.13888293452378       -1.48196372371754
H           -8.72837386603499       -2.52498897766292        0.80026592042982
H           -9.22615576100012       -3.65358137069155       -0.46970472190685
H           -7.53195394552921       -3.57923133471662        0.04150112314251
O           -9.79181496686160       -0.30598511116822       -0.50799338290179
O          -10.06672067745843       -1.25729417625637       -2.48525192401908
