42
 energy: -62.486133505706 gnorm: 0.000480743419 xtb: 6.7.1 (edcfbbe)
N           -2.24503471394588       -0.55913880228209       -0.20905129582853
H           -2.00986574163595        0.37522656299328       -0.52689746157869
H           -1.82701684557386       -1.22384864838089       -0.85017506359065
H           -2.52572739188620       -0.49242413620339        1.78309183782029
C           -3.69350431266606       -0.74496245245227       -0.13754967270550
H           -4.22592827298745       -0.41584702331360       -1.04146733424562
C           -3.98824581073224       -2.22526718090731        0.10974341791215
C           -4.17611979640871        0.04085799224551        1.08687677896882
H           -3.44657192582928       -2.57537755043982        0.98546974193544
H           -5.05099566147445       -2.36247940612889        0.28076360694128
H           -3.68305008243040       -2.81996214522481       -0.74963689318627
O           -3.33787898149881       -0.06544361265768        2.11925320903878
N           -5.22623122178785        0.71489211805548        1.25597629306741
H           -7.67556883988929        0.97300162801662       -1.68368439332938
C           -6.19757421609502        1.05428282738717        0.25603607751095
H           -6.92197065765251        1.68309511151706        0.79928697698811
C           -5.61193657819563        1.89516659910440       -0.90741153502531
C           -7.02265089647766       -0.11975628122934       -0.23536456554039
H           -4.58315351921751        2.15361527077615       -0.64919230607216
H           -5.57463200358164        1.30011651115720       -1.82583946054851
C           -6.37986698023045        3.20061469346024       -1.16960712034065
O           -7.78072873668011        0.07739405179817       -1.33828478500431
H           -7.46049501925599        3.00332341284090       -1.15247822926883
C           -6.06789609372079        4.22931745005461       -0.08558078375127
C           -6.01772653554670        3.75781089328236       -2.54571435182139
H           -5.02267527074416        4.52520988668381       -0.13979119304530
H           -6.68330162923773        5.11656743450702       -0.21384102352727
H           -6.25196983220829        3.82051304359733        0.90442294772016
H           -6.28417744063982        3.06000333499763       -3.33783861374993
H           -6.54341141383461        4.69226031261713       -2.72544713038791
H           -4.94894933351584        3.95140054755822       -2.60496042247880
N           -7.07388667219219       -1.17735711466359        0.44333109047349
H           -6.76125706719399       -1.99328106709591        2.06659117346231
C           -7.95220830594995       -2.27629307790507        0.10986828562279
H           -8.99033331284592       -1.92152139191546        0.04270049825930
C           -7.60794126295476       -2.98957635125305       -1.20054776763756
C           -7.88149293985740       -3.27892142706617        1.27500505161034
H           -6.56830239325326       -3.30933032574806       -1.19770392575854
H           -8.24250169992128       -3.86630229800506       -1.29420071054842
H           -7.77630506805811       -2.32818000638082       -2.04600023328731
O           -7.12846387111524       -2.87863980060305        2.29095656568623
O           -8.45858871625724       -4.33068808399394        1.25874142504693
