42
 energy: -62.486133521282 gnorm: 0.000478967657 xtb: 6.7.1 (edcfbbe)
N           -1.64655263238147       -1.08576908561188       -0.17563013606378
H           -1.07678706254190       -1.92258750093974       -0.16341719580311
H           -1.19698842650473       -0.40041971688602        0.42532129814541
H           -2.51027838214081        0.02720784678766       -1.42936567760023
C           -2.99745067758597       -1.36385373651146        0.31424494976229
H           -3.32993118862200       -2.30012134446462       -0.15019676786401
C           -3.10818833797247       -1.49166007479716        1.83083557890557
C           -3.91601364938410       -0.26837461286195       -0.22649386886663
H           -2.75679036197547       -0.57986159529805        2.31024846437400
H           -4.14593411639711       -1.64659478387934        2.10386961436501
H           -2.51314281597047       -2.33051702131464        2.18583313396596
O           -3.40915946694115        0.39316587428266       -1.28707211132562
N           -5.03288720605842       -0.12065595150839        0.31824965280502
H           -8.09117928641981        1.34659600361028       -1.37978881541719
C           -6.09572146978360        0.78492937451687       -0.02583051011131
H           -6.37167163921214        1.25358048726607        0.93228435605064
C           -5.82571895415036        1.89905113448571       -1.05606596659597
C           -7.27747219221164       -0.09801632111447       -0.40444447987209
H           -4.75984394781205        2.12087096980091       -1.04887966664350
H           -6.05816931994118        1.53377217070035       -2.06080564176059
C           -6.58222888374826        3.20628582766079       -0.76118087534310
O           -8.28015451460630        0.43149458794834       -1.13579634323228
H           -7.59885388684524        2.99006439969385       -0.40521934678940
C           -5.87240367333422        3.99735712400934        0.33643818459800
C           -6.68553287817100        4.05174136246842       -2.02989851118577
H           -4.88254130432955        4.29975361457384        0.00168671652510
H           -6.43792302688157        4.89186119632457        0.58793449576307
H           -5.76033077152905        3.40034333863092        1.23859031611802
H           -7.23813041689787        3.53027280146328       -2.80954802397361
H           -7.19466307741359        4.99012332629520       -1.82217997771611
H           -5.69221630828610        4.27830314839621       -2.41060328214357
N           -7.27917980688800       -1.28552767700682        0.00353702826336
H           -6.47119184837609       -2.49072948329246        1.00744430210896
C           -8.32721263054929       -2.23878681095186       -0.25503361086073
H           -9.31029833483486       -1.84970502160790        0.04003508504844
C           -8.38814830767528       -2.67223504134941       -1.72319791283008
C           -8.00500270343638       -3.47107120358294        0.61163596213953
H           -7.40356616374228       -2.99848864854145       -2.05250782886474
H           -9.08798949689911       -3.49721943343132       -1.82219697480951
H           -8.71435491326764       -1.84296652208352       -2.34536206921758
O           -6.84148507673903       -3.38133736445992        1.24028301701097
O           -8.73290215434350       -4.42230163811406        0.69117897467545
