42
 energy: -62.486133520511 gnorm: 0.000479023011 xtb: 6.7.1 (edcfbbe)
N           -0.88501006865848       -0.42287704008301       -0.16274191213515
H           -0.06992610932675       -0.73875087910942       -0.67465181361284
H           -0.86122475100278       -0.86677712519185        0.75144348256123
H           -1.85236504244455        1.23625623945345        0.20798340404474
C           -2.11520502107244       -0.79609026565368       -0.86171724475883
H           -1.99513584183718       -0.49187741615575       -1.90999551595229
C           -2.46564532033228       -2.28012502807063       -0.80771374401467
C           -3.23331843293519        0.06391772232339       -0.29539801029424
H           -2.53656774270463       -2.61150623272242        0.22633021150418
H           -3.42886599545913       -2.43340751962890       -1.28193718871645
H           -1.70809546214165       -2.87089742064702       -1.31871919420169
O           -2.82951597628756        1.24132396398497        0.22452436985696
N           -4.42068712632160       -0.34055013972041       -0.34517386166380
H           -6.52920591744491       -0.33745164634966        2.16474298288788
C           -5.51146361695865        0.49069518388176        0.11472429132167
H           -5.27162189914514        0.93011100724509        1.09635468090718
C           -5.78224382517559        1.61819181263311       -0.89418140144825
C           -6.72307295815744       -0.40457269856068        0.22512426098152
H           -4.87746967891800        2.22297782645288       -0.97536462033786
H           -5.97323570456238        1.13705770245108       -1.85370408639243
C           -6.96875783075227        2.51618940796464       -0.53313355863183
O           -7.14249795097200       -0.69772314339584        1.51297144785320
H           -7.85484849827022        1.88825792832231       -0.39108283814436
C           -6.71692390750837        3.31456804888766        0.74468136439650
C           -7.24265293404183        3.46915136221864       -1.69505228845911
H           -5.79212067271441        3.88184501055506        0.66067684241353
H           -7.53344111687072        4.01188182138838        0.91738326657313
H           -6.64524411897034        2.66696360989427        1.61542671982949
H           -7.45124831663859        2.91015157513959       -2.60349079775266
H           -8.10081077114488        4.10016654207796       -1.47687101409627
H           -6.38051300214914        4.10904566457574       -1.87212410910219
N           -7.26620221131836       -0.84169544607253       -0.80954812806748
H           -8.91901093873114       -0.59841287219859        1.15935544097501
C           -8.38603141309098       -1.74101571801475       -0.89900694690694
H           -8.45875580715042       -2.00776973594828       -1.95976008808138
C           -8.23948467497496       -3.02338475164213       -0.06829393210333
C           -9.71440305124741       -1.06395285330060       -0.52793610755803
H           -8.23077910420055       -2.80962663215899        0.99825345614166
H           -9.06648123716485       -3.69412473779963       -0.28775896128222
H           -7.30458753012147       -3.51320239277450       -0.33070545157119
O           -9.76057115636522       -0.49502645224950        0.67696585604731
O          -10.66094852165821       -1.05996008633560       -1.26194419380108
