42
 energy: -62.486133500846 gnorm: 0.000481869252 xtb: 6.7.1 (edcfbbe)
N           -0.91049166915640       -0.40950357367189       -0.77350321216018
H           -0.21124007839140       -0.92634877206618       -1.29345669816133
H           -0.64051186643859       -0.43127063280423        0.20641838059072
H           -1.89139399516326        1.25690856599231       -0.89498205259358
C           -2.23309619466193       -1.01366444826229       -0.93545276791572
H           -2.38354975984098       -1.17859537911255       -2.01043421821622
C           -2.43399809841974       -2.33260052316604       -0.19503667584737
C           -3.26341590025635        0.03018449668927       -0.52085056775541
H           -2.25049223815441       -2.19749637311051        0.86906014689358
H           -3.45975044917827       -2.65865318794538       -0.32705104467285
H           -1.75701654600003       -3.09343784914021       -0.57855468167872
O           -2.83440829040498        1.30170316700295       -0.63800069872407
N           -4.38608913365417       -0.35562976685650       -0.11770017542557
H           -6.83202660416645       -0.11507381376987        2.19162768318545
C           -5.48606798356383        0.50850118289677        0.24070420784439
H           -5.29644602821517        0.90853796228871        1.24854932894896
C           -5.74194989453200        1.67047372110369       -0.73471015127744
C           -6.71352806806029       -0.37822141150477        0.26259274024502
H           -4.85663274004103        2.30446209225413       -0.77256237895262
H           -5.89485023865355        1.22192165259383       -1.71724388254633
C           -6.96309894279666        2.52241931192043       -0.37093161170641
O           -7.33976636587968       -0.53536949962848        1.48751579631137
H           -7.82301746638897        1.86392113879278       -0.20476208499728
C           -6.72442823781526        3.35202657613048        0.88970573264854
C           -7.29879903625733        3.44603590702773       -1.54009409130195
H           -5.86508006028953        4.00532838446498        0.75315492771758
H           -7.59406818442093        3.96936649409485        1.10310176178582
H           -6.54121134595397        2.72417864121258        1.75898235840060
H           -7.52049074052277        2.86493936499961       -2.43144155086972
H           -8.16718261391516        4.05723475686089       -1.30586980590014
H           -6.46048995715512        4.10529448459721       -1.75554492097420
N           -7.09626587197642       -0.91352550466545       -0.79788707835390
H           -9.03690418961084       -0.46125103659234        0.84905132794552
C           -8.21117396533451       -1.80654927898100       -0.97452403823506
H           -8.12044991136599       -2.18321813958155       -1.99994954410091
C           -8.23618175301521       -2.99532424850626       -0.00400160079027
C           -9.55959689835362       -1.07431052048221       -0.89642292664074
H           -8.39853379057971       -2.67161019245355        1.02170665705561
H           -9.03204460008649       -3.67897547926449       -0.28897981011983
H           -7.28358879293064       -3.51768046288416       -0.05479815199001
O           -9.78488118324377       -0.39150990337712        0.22653494222501
O          -10.37198157086966       -1.12564369669758       -1.77502450396502
