42
 energy: -62.486133507714 gnorm: 0.000480902088 xtb: 6.7.1 (edcfbbe)
N           -0.90934954625817       -0.48530591391980       -0.04107813956093
H           -0.13187383081677       -1.04582988249742       -0.36873918723150
H           -0.84744354725714       -0.44109011051905        0.97269010973910
H           -1.78505779842697        1.17944403422615       -0.41080641132753
C           -2.18583290413925       -1.08324142557996       -0.43053105101575
H           -2.11159773502951       -1.33584692075517       -1.49692540191598
C           -2.57521271219952       -2.33207474372862        0.35593566998174
C           -3.24733046751505        0.00723976739994       -0.31380868411631
H           -2.61725158356586       -2.10570547162229        1.41923640542577
H           -3.55843429509956       -2.66474688863853        0.04146824494362
H           -1.85200750152301       -3.12795450211656        0.18962640390196
O           -2.76076115722132        1.25985442439274       -0.38529564398458
N           -4.44551651799808       -0.33532654467906       -0.17371208534905
H           -5.91777724026479       -0.20833968820814       -2.34886792079447
C           -5.59026005715006        0.54287046494850       -0.08725391615710
H           -5.78574068328176        0.71060612919294        0.97738911879126
C           -5.49217257820920        1.89318248254807       -0.81694608033956
C           -6.73873529411859       -0.28272030020229       -0.62993431110002
H           -4.77283306030355        2.52149966278788       -0.29132128205715
H           -5.09746054503638        1.73146335609417       -1.82565829822744
C           -6.83365899010334        2.63045439227562       -0.91584990226324
O           -6.71373812087235       -0.57518895113579       -1.94470653118467
H           -7.54956741100441        2.00206163095632       -1.45823001125004
C           -7.41406887057478        2.93490446144902        0.46281626722790
C           -6.63962429395511        3.92579071839724       -1.70299195769439
H           -6.69268508652635        3.48141039788370        1.06671660689165
H           -8.30906538140515        3.54458096719585        0.36353688148446
H           -7.68680145071735        2.01970105120849        0.98123994389386
H           -6.24080268475493        3.72302938806299       -2.69479079426227
H           -7.58702106524261        4.44695293859653       -1.81669662442169
H           -5.94639491198558        4.58312147540999       -1.18251883557457
N           -7.62242420576741       -0.70968610765897        0.15760985220105
H           -8.46798788798356       -0.64528090495817        1.76147053592952
C           -8.71609494320855       -1.53896504570238       -0.29949195140923
H           -9.13247970859679       -1.18378197523819       -1.25019823659370
C           -8.27956972777805       -2.99911887029995       -0.46350202724012
C           -9.80940692923404       -1.48142085725073        0.77710576919685
H           -7.83041549813695       -3.35704890195032        0.46062790258440
H           -9.14661182385142       -3.60942447705623       -0.70005060403268
H           -7.54978319230556       -3.07791445182808       -1.26511189304392
O           -9.39845274918643       -0.93309613028623        1.91475601456803
O          -10.91688726462227       -1.91108450931606        0.61172709132144
