42
 energy: -62.486132283170 gnorm: 0.000623982284 xtb: 6.7.1 (edcfbbe)
N           -1.24994790385421       -1.50828292614548        0.76943556487963
H           -0.23950388946864       -1.52020508823290        0.71023561119434
H           -1.57467126830190       -2.46348324859948        0.64654917905035
H           -2.64083040928989       -0.82675618170206        1.90673161585554
C           -1.83041164455673       -0.64371463896191       -0.25553092779383
H           -1.24448441880793        0.28312428189057       -0.27721171427529
C           -1.86401626606100       -1.24606490909467       -1.65953341029541
C           -3.22602977870540       -0.25802490614244        0.21635599370734
H           -2.38126217115990       -2.20453313459950       -1.64890647277218
H           -2.39171017028658       -0.57249082068287       -2.32670907397410
H           -0.85347675489792       -1.40106362095908       -2.03118978679001
O           -3.45554427770046       -0.43968303983066        1.52561105278211
N           -4.04918619657453        0.23272868460363       -0.60492230347931
H           -4.81870155342702       -1.64753200176001       -0.75645875805817
C           -5.38108215016426        0.61286035339903       -0.17647466436004
H           -5.38153567344583        0.93293627714148        0.87498918863702
C           -5.77168867848108        1.78857109887255       -1.08933927027910
C           -6.31437770773011       -0.58262129519042       -0.27511934130961
H           -5.00388879956913        2.55199758076819       -0.94133126450981
H           -5.68757208949471        1.43951066106065       -2.12012986614293
C           -7.14834647676612        2.42280959047134       -0.88465974366790
O           -5.75258279050369       -1.78129082068777       -0.52781218527206
H           -7.90874930811813        1.70968282907192       -1.20873230464713
C           -7.40208545179053        2.79306076048816        0.57384997582439
C           -7.25871577737999        3.66594189571944       -1.76724247148612
H           -6.62446673689130        3.46250811934943        0.93678334118122
H           -8.35981215109186        3.29905498013221        0.66989107994682
H           -7.41938831420647        1.90631810285798        1.20156018705340
H           -7.07631674860465        3.41581264097426       -2.80958333799735
H           -8.25351835662418        4.09701921061272       -1.68818515848393
H           -6.53349877228519        4.41792138439771       -1.46256378489083
N           -7.56205986561149       -0.42370487580860       -0.19373822029169
H           -9.09322419880821        0.60309158214273        0.10135185597999
C           -8.46266237160203       -1.55003289547218       -0.31115757869540
H           -8.22158402216392       -2.17308123600246       -1.18151481650863
C           -8.44658434248584       -2.43028310641524        0.94538648963350
C           -9.88312736567538       -0.99364073001442       -0.46728138697552
H           -8.65672236917985       -1.82569493128146        1.82577810912581
H           -9.20575611481953       -3.20204300918628        0.85378424174112
H           -7.47063116052321       -2.89487664915544        1.05909788786239
O           -9.99684429758366        0.28144710649632       -0.11468076330444
O          -10.80959246680410       -1.65931892922629       -0.83844768374413
