42
 energy: -62.486133488774 gnorm: 0.000484191138 xtb: 6.7.1 (edcfbbe)
N           -1.64262035357173       -1.60316587103643        0.39166264095644
H           -1.32008449967838       -2.56163703243913        0.33062548392560
H           -1.48664205039276       -1.29037845559933        1.34577891750478
H           -1.51611073783616        0.07214118669243       -0.49170100137817
C           -3.06842760084174       -1.51082048133572        0.07342254026766
H           -3.23151725645609       -2.07388399396352       -0.85494203295412
C           -3.99579562570209       -2.04359531711281        1.15931877349293
C           -3.38322884052914       -0.04036512915038       -0.25751040640687
H           -3.82319407614632       -1.51437308197111        2.09491138458562
H           -5.02205348438627       -1.87628026761603        0.84932560298688
H           -3.83236741362228       -3.10741074776345        1.32134037964221
O           -2.28171757560263        0.66991598614028       -0.61024273344711
N           -4.48901734255816        0.49438767928942       -0.21711811365349
H           -7.51116999360845        1.01737008368800       -2.06459260657263
C           -5.76124551064145        1.04506330961487       -0.29774973232307
H           -5.98759515459396        1.42218834908810        0.71150652676602
C           -5.79171896370823        2.24632006861661       -1.27292480246533
C           -6.83235558365027       -0.01151504091268       -0.59247654720895
H           -4.84424216333480        2.77131443483447       -1.14100772613503
H           -5.79227851815588        1.88161584969666       -2.30547991270174
C           -6.94758794275042        3.23088205803937       -1.02963386303027
O           -7.67423809757724        0.17203361215230       -1.62670748293992
H           -7.86560633736684        2.68114384766174       -0.78541863429211
C           -6.63155098786276        4.15028117898612        0.14858637217017
C           -7.20217442041530        4.06546043836234       -2.28493999330784
H           -5.75748656583286        4.75875901655548       -0.07221846957838
H           -7.47038033082275        4.81315519922422        0.34837234935172
H           -6.43018347038632        3.57742683288508        1.05065234756377
H           -7.49052188061417        3.43977967100342       -3.12823496652330
H           -7.99991850606840        4.78320867970438       -2.10902807083489
H           -6.30358253876858        4.61365962716211       -2.55887458586651
N           -6.86449153789230       -1.05518620649525        0.11576369460582
H           -6.86577715850570       -1.58939766179553        1.89401991559080
C           -7.82598108983058       -2.10764527146134       -0.12815147911157
H           -8.76661675868745       -1.71886081483547       -0.54099466969772
C           -7.26376723713953       -3.15788771581797       -1.09077337362541
C           -8.14381561949237       -2.78061681057367        1.21527102713707
H           -6.30495026425889       -3.52069962806959       -0.72730893608639
H           -7.95931535125413       -3.98996965572791       -1.15405381578061
H           -7.12690685126473       -2.72263976125269       -2.07763021212811
O           -7.45561302124356       -2.29352762447885        2.24348882381711
O           -8.94234279300224       -3.66814161722584        1.32470603618124
