42
 energy: -62.486133501624 gnorm: 0.000481660011 xtb: 6.7.1 (edcfbbe)
N           -1.47508112064883       -0.53676289318156       -0.02350819607085
H           -0.77256522469024       -1.25012261426274        0.14122742018019
H           -1.99072323649547       -0.38502158814055        0.83718314530258
H           -3.83973023154486       -0.18808521129700       -2.84051805824037
C           -2.40776900190976       -0.97340640150863       -1.04453377638731
H           -1.94546660032380       -0.76964553198538       -2.02343342856867
C           -2.77146627433185       -2.46809572734767       -0.96762285871423
C           -3.70199514230257       -0.19592223133629       -0.92279133211933
H           -3.19733231180741       -2.68374140163421        0.00944519678830
H           -3.50609030092247       -2.72732738914256       -1.72645579785563
H           -1.88271545257444       -3.07890119997140       -1.11530038404058
O           -4.31250132986050        0.15326739333339       -2.07087503993348
N           -4.12795637662979        0.04340256114920        0.23612603199796
H           -7.43077722930260        0.40193242194597        1.81745997261945
C           -5.40003423521533        0.65543430635166        0.51986764370684
H           -5.37228055359635        0.86007347346201        1.60051133057109
C           -5.64983970997655        1.97126623176735       -0.24573857768750
C           -6.52503032292865       -0.31596116130093        0.24582626119615
H           -4.74332502545186        2.57433995370207       -0.15637550337353
H           -5.78482897837397        1.71848940509351       -1.29720232434532
C           -6.85247258665997        2.79143468789656        0.23364149120138
O           -7.60298832363514       -0.23254615388746        1.11100640319304
H           -7.74510074899002        2.15584482375185        0.25019824544288
C           -6.63019650110691        3.38381170939145        1.62506646389382
C           -7.11339574585725        3.91847149755766       -0.76517102848934
H           -5.76809449263752        4.04710363800585        1.61406632505917
H           -7.50018196891466        3.96023948732757        1.93230551996448
H           -6.45313888776250        2.61761893888381        2.37763452386146
H           -7.32763655677203        3.51284728008703       -1.75073619164322
H           -7.96371637284346        4.51860367222549       -0.44954806397807
H           -6.24326851182094        4.56687385118350       -0.84071382559640
N           -6.46262154447967       -1.09573971098051       -0.72681241617908
H           -8.88240999457675       -0.37928450777925       -0.18907150563126
C           -7.44661289165028       -2.05885264431071       -1.14350217196345
H           -6.95648760455707       -2.65867726165242       -1.91941415014141
C           -7.95131280721240       -2.99102361310618       -0.03381660065332
C           -8.65361451272851       -1.38173803226434       -1.81169211399719
H           -8.50043687649868       -2.44521052995546        0.73015452140203
H           -8.60399920304628       -3.74532562289426       -0.46651551834244
H           -7.10343519233996       -3.48428846444665        0.43642987913929
O           -9.29416649922404       -0.48078327042040       -1.06755344292921
O           -9.01339479032475       -1.65661792444967       -2.92031283502201
