42
 energy: -62.486133506776 gnorm: 0.000480681688 xtb: 6.7.1 (edcfbbe)
N           -0.95094104454006       -0.41846331942883       -0.95076635570203
H           -0.29162726825477       -0.96307879339976       -1.49277770199501
H           -0.58137580636060       -0.33961032910560       -0.00746623633650
H           -1.95665207205449        1.19901543579254       -1.09497088335153
C           -2.26274776863731       -1.06489725455240       -0.91743995899326
H           -2.50160596262465       -1.37292985066446       -1.94305739130974
C           -2.35321040519157       -2.27868882983719        0.00335045542610
C           -3.29057558561661        0.00057028428591       -0.54560867251767
H           -2.08016159009294       -1.99972273946919        1.01930219979460
H           -3.37476116826164       -2.64217631557202        0.00959313176457
H           -1.68740630954320       -3.06878928034795       -0.33825559996062
O           -2.88153673608896        1.26154821517472       -0.77808732281255
N           -4.39279744630033       -0.37127251432764       -0.07841919494697
H           -6.90498858005135       -0.23078977113933        2.15452646502516
C           -5.50089090194239        0.48445506170157        0.27431311186225
H           -5.33852870388318        0.82636236680692        1.30772740817604
C           -5.73187574334065        1.69875563140134       -0.64080432147523
C           -6.73023251925106       -0.39942123043834        0.21945097308574
H           -4.84671455550368        2.33347478616514       -0.62266827976801
H           -5.86020883551928        1.30719273943312       -1.65082946113014
C           -6.96069272699754        2.53245528613781       -0.26087136814014
O           -7.39356012831804       -0.61261202599738        1.41585226897431
H           -7.82959637536107        1.87121895233183       -0.16917290671639
C           -6.76078319592122        3.27326515033638        1.06050386909176
C           -7.24947039097415        3.53636383118985       -1.37516905912745
H           -5.88439725375079        3.91572922740420        1.00287732452820
H           -7.62706706931554        3.89413630389006        1.27748341449227
H           -6.62740341598755        2.58709273397783        1.89411955000938
H           -7.44273969771812        3.01934447947359       -2.31146695238104
H           -8.12168384941623        4.13801463571793       -1.13042826765417
H           -6.39968692566469        4.20117681394915       -1.51565786127269
N           -7.07928051528258       -0.88598875226611       -0.87570957933242
H           -9.06836977114318       -0.50451553209408        0.72972847304401
C           -8.18997175932668       -1.76515155634662       -1.13031448213151
H           -8.06854897491245       -2.09078076323549       -2.16995392344197
C           -8.24756937156726       -3.00077297022863       -0.22161071744655
C           -9.53992953665918       -1.03506976620382       -1.05695999413411
H           -8.43742392200050       -2.72745379713158        0.81397975439341
H           -9.03831441684357       -3.66438552061405       -0.56282600653033
H           -7.29643506425794       -3.52576484643235       -0.27196820635320
O           -9.79746472221315       -0.40436785110299        0.08914838966289
O          -10.32696317664647       -1.04549402777547       -1.95976093121505
