42
 energy: -62.486133518025 gnorm: 0.000479432161 xtb: 6.7.1 (edcfbbe)
N           -0.89110105147810       -0.96079835602297        0.46187377525158
H           -0.57597902541025       -0.15899364126989        0.99744517736986
H           -0.07638572592050       -1.40597315838125        0.05694753402289
H           -2.41765173347079       -1.54172933727450        1.38748214657536
C           -1.83494028913659       -0.55344789620322       -0.57886823390110
H           -1.59525415499526        0.41176361652218       -1.04343433117375
C           -1.91051730018816       -1.62473367967136       -1.66707724322336
C           -3.20308488103024       -0.44118139529964        0.07556628869471
H           -2.15104217659338       -2.59154378270196       -1.22918080878678
H           -2.68141847875404       -1.35901526640059       -2.38416522913345
H           -0.95819198531475       -1.70299616413723       -2.18709709871279
O           -3.31785287986659       -1.18697388077269        1.21186828179140
N           -4.06643092340604        0.29649199570840       -0.44201671775558
H           -4.96223042848745       -1.69971820110192        0.98124937269890
C           -5.43194955432717        0.53138036209276       -0.02980712009107
H           -5.41441914229627        0.92953111988455        1.00055706421692
C           -6.00438943039858        1.59804602574480       -0.97221475670385
C           -6.32085728647641       -0.69950245864538        0.04762776010831
H           -5.17655878984083        2.24426428140383       -1.26713360601585
H           -6.37079319502770        1.09723025881800       -1.86787370864913
C           -7.12033104703529        2.44959478970656       -0.35600863447624
O           -5.86650823462436       -1.81221348261511        0.63910667421044
H           -7.80684439234887        1.78839366486324        0.18051554033826
C           -6.55594714464869        3.47426448048986        0.62675557968496
C           -7.89330450817829        3.16973335963242       -1.45948204444442
H           -5.88403287626986        4.15938328181505        0.11367089963205
H           -7.36088501415354        4.05440411724182        1.07207612926790
H           -6.00385657837377        2.99391929586549        1.43106815959717
H           -8.34674830975969        2.46062902786760       -2.14730399817594
H           -8.68420670266369        3.78168410895335       -1.03221174189336
H           -7.22674077232889        3.81854838106782       -2.02407703914919
N           -7.49906327854721       -0.60617857014692       -0.39513219390496
H           -8.67868665726222        0.21362475349349       -1.48523351146866
C           -8.43424266058368       -1.70439299668655       -0.31726591667516
H           -7.95985945542585       -2.66912891868955       -0.53734665875458
C           -9.09537461879324       -1.78119531861919        1.06363971111802
C           -9.52848169850073       -1.43846840273421       -1.36201962864201
H           -9.53554842813129       -0.81899920035311        1.31856535588486
H           -9.87605788915954       -2.53638014141478        1.04655911904384
H           -8.35471931902069       -2.04326998758753        1.81515442505643
O           -9.46947424163214       -0.22084388995521       -1.88720667731597
O          -10.36422900159423       -2.24723472965211       -1.65663703981048
