42
 energy: -62.486133508285 gnorm: 0.000480571239 xtb: 6.7.1 (edcfbbe)
N           -2.32513844775402       -2.25607473813858        1.05425683953297
H           -2.43389888256536       -2.03368184098054        2.03848841141280
H           -1.42133069240348       -2.69715872891615        0.93196400254708
H           -4.17269735540801       -2.51129146505896        0.54138777688290
C           -2.42827173344312       -1.04802803126684        0.23866788028879
H           -1.89773081072005       -0.18089547646173        0.65567636150988
C           -1.89697665188047       -1.32782690245251       -1.16760808467241
C           -3.90800815101434       -0.70017043798823        0.14041937023961
H           -2.42549110663851       -2.17127831178337       -1.60702522112147
H           -2.04220704183256       -0.45114037840554       -1.79156071363546
H           -0.83500889089308       -1.56177697038309       -1.13167485441646
O           -4.73230019829508       -1.74704800469503        0.29104942676123
N           -4.22161800949473        0.48698772984937       -0.11581725475903
H           -6.34575289360790       -0.08011984760127       -2.28239543978285
C           -5.56148360902330        1.01585186593493       -0.23531161224064
H           -5.75240541975936        1.53118943599032        0.71400175338019
C           -5.54271758826190        2.05338742166216       -1.36853215807462
C           -6.66006975533582       -0.01457475399692       -0.39404866408981
H           -4.77867849376455        2.78868365459212       -1.11240488595630
H           -5.21122634026530        1.57414196328332       -2.29626388733188
C           -6.88150114202558        2.76352635671415       -1.60327099595095
O           -6.92140266728471       -0.49442678167346       -1.62746223084316
H           -7.65380421696097        2.01997598652093       -1.83130374922453
C           -7.32662234895773        3.54668565599955       -0.37056770123754
C           -6.75081937568598        3.70161612556104       -2.80284846095049
H           -6.54729016587817        4.23792200760544       -0.05728444148700
H           -8.22248515443062        4.12004390397162       -0.59712959717782
H           -7.55582675707347        2.87917623864198        0.45586742549339
H           -6.45142872314013        3.15584688226031       -3.69542239381848
H           -7.69909395767065        4.19259133163443       -3.00682863826464
H           -6.00429191987694        4.46714511656541       -2.60302148290438
N           -7.25204368171019       -0.42379507702502        0.64014062742843
H           -7.62740459956096       -0.25649137362067        2.39328606962513
C           -8.29822438476688       -1.41967877744293        0.58346356140786
H           -9.00259960051321       -1.22148331296590       -0.23432683623752
C           -7.73913813287197       -2.83731045213327        0.42119378937315
C           -9.05099576059409       -1.35530927149719        1.91971938596566
H           -7.02245213438110       -3.04287480203160        1.21286224978333
H           -8.55486288724760       -3.55249332366298        0.47794552831516
H           -7.23789269979770       -2.92727054217267       -0.53833563059712
O           -8.42593693687921       -0.62819405292657        2.83906035083909
O          -10.08706205119425       -1.92640359718477        2.11992878134048
