42
 energy: -62.486133493138 gnorm: 0.000483563979 xtb: 6.7.1 (edcfbbe)
N           -2.28853033559987       -1.25004880551592        1.67781834435389
H           -1.75750739224971       -0.41581781282323        1.90335204246468
H           -1.66127759417580       -2.04437622559366        1.71777099906764
H           -4.08944737463780       -0.90799053179437        2.28965827942029
C           -2.90413516995255       -1.13723855523530        0.35704044116714
H           -2.26315127344373       -0.66415538461843       -0.39905967072061
C           -3.32787391626740       -2.52376832549357       -0.13238290912815
C           -4.16417307793976       -0.30871846359567        0.51724893286819
H           -3.94938264981541       -3.01149155109804        0.61534088673245
H           -3.89431203775096       -2.42562284827807       -1.05340523444456
H           -2.45268652474799       -3.14248647386240       -0.31992045842225
O           -4.72605264957672       -0.40328122426254        1.73813900650759
N           -4.57051612535167        0.39719524491954       -0.43862848957132
H           -8.10538098369719        1.33363741065942       -1.31989416848606
C           -5.84648734802792        1.07098771717313       -0.40221404870631
H           -5.94474566793587        1.63436395704848        0.54203204803561
C           -5.90621402396252        2.04255324217668       -1.59322253303106
C           -6.99118623377243        0.07051515468553       -0.38659904952361
H           -4.87419275278057        2.25214022315996       -1.87734145628207
H           -6.36602672738427        1.54382004224475       -2.45113976794335
C           -6.62023918065891        3.37011017644180       -1.29165260727153
O           -8.16329815309878        0.44605059105705       -0.94460718774938
H           -7.52338060824428        3.18394720344515       -0.69426735076188
C           -5.71292856182329        4.29595457595880       -0.48385155978906
C           -7.03828118634366        4.05326301902017       -2.59297756822822
H           -4.83481394827476        4.56333155789390       -1.06718434693442
H           -6.24009042015112        5.20902613135288       -0.21669857682231
H           -5.37945408861779        3.81414602418007        0.43201330789411
H           -7.73005402769710        3.43345887272598       -3.16067972341113
H           -7.52596186820394        5.00266148324671       -2.38428599736568
H           -6.16575207412364        4.24597985237610       -3.21285496847212
N           -6.83559501592477       -1.04818271705019        0.16357782065847
H           -6.03191508534228       -1.90217099110992        1.58196591775982
C           -7.88070342448663       -2.04070960995970        0.21952311246906
H           -8.84571462740309       -1.59797577374082        0.50335028839205
C           -8.04764320612327       -2.76942713529411       -1.11665165366467
C           -7.48744782055689       -3.05781153570330        1.30223517091069
H           -7.08327000279061       -3.14286515345926       -1.45510967594043
H           -8.72666788982147       -3.60651342763564       -0.98162991605419
H           -8.44903896048898       -2.09159317632753       -1.86540967432896
O           -6.36205936895899       -2.76483734377588        1.93903537897755
O           -8.13860189996160       -4.03808530508828        1.54050191250619
