42
 energy: -62.486133515834 gnorm: 0.000479530328 xtb: 6.7.1 (edcfbbe)
N           -0.95004116252959       -0.60148028504140        0.69888528841046
H            0.01223851476800       -0.74007974363608        0.41534705330089
H           -1.19510656257747       -1.35777331787543        1.33189517828955
H           -2.12527654401567        0.80539528528020        1.35111827720063
C           -1.84393860226727       -0.61245263008699       -0.45743518536884
H           -1.40964907516996        0.06213978953774       -1.20732037034121
C           -2.05972402682996       -1.98808501006953       -1.08557228216786
C           -3.15255152182485        0.01955673941433       -0.00761439686524
H           -2.54692592736778       -2.65348436031259       -0.37635063737265
H           -2.68962789160714       -1.89906700131839       -1.96411215648855
H           -1.10513939969712       -2.42064104258883       -1.37924339132196
O           -3.04802461472682        0.85927379033195        1.03095335822419
N           -4.22269663464121       -0.24609715702696       -0.61455599435427
H           -5.26077598891380       -1.38917249841935       -1.69141889234565
C           -5.47946912378145        0.35632983372978       -0.21986534626526
H           -5.51369135425907        0.56491843044832        0.85414730418162
C           -5.66992621786758        1.66974735041327       -1.00383398826528
C           -6.55560705624552       -0.64380003556037       -0.58259753733022
H           -4.83776548846918        2.32727065559440       -0.74127658571490
H           -5.59077273741467        1.43857398930418       -2.06963685643765
C           -6.99176816147792        2.39525942028791       -0.74105224027005
O           -6.21132616247098       -1.54108838890323       -1.51367358198742
H           -7.81652998676845        1.71488330705438       -0.97167135860165
C           -7.11698329084814        2.83909172069933        0.71376862152001
C           -7.09207873260698        3.60662021285765       -1.66732477244528
H           -6.29109400713001        3.49473089578889        0.98256679224013
H           -8.04809332536080        3.38085028465061        0.85954981733335
H           -7.11478583786457        1.98503094157783        1.38485959393863
H           -7.03327939569730        3.30325637350346       -2.71014562997928
H           -8.03763930196179        4.12047106739137       -1.51442345728768
H           -6.28410661264603        4.30752447560031       -1.46675914411488
N           -7.68529746354060       -0.57909651393901       -0.02568229324419
H           -8.94300180679643        0.42072606613856        0.82936559651890
C           -8.74914735458372       -1.49559947779279       -0.37484328448050
H           -8.78224691291215       -1.69506579447980       -1.45371829749446
C           -8.60718513704255       -2.82792255451304        0.36884470131802
C          -10.07270352368457       -0.84115713889596        0.04613216254337
H           -8.52365456710456       -2.64793688330054        1.43881401757030
H           -9.48307214471670       -3.44130087645121        0.17740380957109
H           -7.71702261793202       -3.34939696940815        0.02581401950837
O           -9.91431906127819        0.26314464762553        0.76601769461876
O          -11.14638444036978       -1.29612344801921       -0.23642061651390
