42
 energy: -62.486133505569 gnorm: 0.000480795832 xtb: 6.7.1 (edcfbbe)
N           -1.33122372204515       -0.82592081438492        0.10754675073862
H           -0.71104325006484       -1.60365036723920       -0.08194002763925
H           -1.04052577894356       -0.41144211063828        0.98904167717697
H           -2.05874002913850        0.67474547441852       -0.76986731334926
C           -2.72027720045766       -1.27758078244696        0.20944240743333
H           -2.90431646255476       -1.96064280604178       -0.62898523814963
C           -3.05900799918174       -1.98714605464866        1.51706666623300
C           -3.61403452048929       -0.06077258695406       -0.02638922307042
H           -2.85583315235960       -1.33149497238777        2.36156877811742
H           -4.11125958547230       -2.24675827358327        1.52875312937162
H           -2.46525432979351       -2.89292841927446        1.62036321065743
O           -2.99257746496191        0.95457767757256       -0.65897392843998
N           -4.80066827728109       -0.11624436773063        0.36871524304733
H           -8.13878403615275        1.67694883009934        0.60506396268149
C           -5.84480471439992        0.86222047122681        0.21089948757737
H           -5.83744459067186        1.50837499667255        1.10046131660922
C           -5.71847660187149        1.72026356611695       -1.06956706424760
C           -7.14150897415380        0.07665193840877        0.19985444371601
H           -4.73989894281965        2.19957015096672       -1.04773872688344
H           -5.72907322711985        1.02882408750990       -1.91591414521651
C           -6.77424521657913        2.80745709707165       -1.29950804272783
O           -8.29923705052774        0.74381132608745        0.41969246187665
H           -7.77117423586512        2.35709735354471       -1.35568994649398
C           -6.74992188956842        3.87127788824188       -0.20131702555305
C           -6.50310072675739        3.47179275064743       -2.65021320406738
H           -5.77072597379896        4.34448043972519       -0.16603598531857
H           -7.49225102961183        4.64031679529006       -0.40466642648852
H           -6.95653231769106        3.46082633960117        0.78624286034179
H           -6.54885123186429        2.74055863437798       -3.45360793736575
H           -7.24092682812640        4.24571223062270       -2.84919770114309
H           -5.51551843433577        3.92770720222853       -2.65764269351678
N           -7.09200814172741       -1.16919082968054        0.05991676750902
H           -6.05189804714048       -2.58516668840697        0.14353324862551
C           -8.23948107022421       -2.03697386941447        0.08954404662342
H           -8.91295219598135       -1.79859702841268        0.92352128904223
C           -9.03772671046238       -1.99091548482605       -1.21686315225913
C           -7.68942319194223       -3.46142993214000        0.29150299339769
H           -8.37571253394159       -2.16956351885946       -2.06169515331518
H           -9.80306845410655       -2.76161806931367       -1.19532330102767
H           -9.50679423696864       -1.01698840405002       -1.33219539653883
O           -6.36501003498420       -3.51943025654222        0.26779938522391
O           -8.39487883779324       -4.42078529445129        0.44173637006071
