42
 energy: -62.486133497481 gnorm: 0.000481348477 xtb: 6.7.1 (edcfbbe)
N           -1.38226489925199       -0.91666761248731       -0.41679982368499
H           -0.73924533758720       -1.69818202361224       -0.46461510279337
H           -1.02922628935076       -0.27579865988479        0.28940953740723
H           -2.33174158588771        0.27807475100902       -1.59095310698050
C           -2.72313513375705       -1.36839879562292       -0.04402551361040
H           -2.97031769197486       -2.21692962921917       -0.69609445455455
C           -2.87674958862483       -1.79434008360408        1.41299975604207
C           -3.69384501653272       -0.25053796597345       -0.41095703711523
H           -2.61122128603730       -0.97232204132933        2.07410171184094
H           -3.91115751418766       -2.06024091361503        1.60015512847971
H           -2.23680696020281       -2.64713760991155        1.63034124804375
O           -3.25463135258151        0.54748503250667       -1.40799834026160
N           -4.78869687270601       -0.18959083111580        0.19393338574765
H           -6.83455527781864        0.70693519054148       -2.31332674639745
C           -5.86729136419535        0.74409732606789       -0.03163913004473
H           -6.18190059479536        1.03202099386329        0.97975276199849
C           -5.57604603818858        2.00922811836603       -0.84575803718732
C           -6.98652346111627       -0.12309247157074       -0.58978783309154
H           -4.70116700152105        2.49283830024691       -0.40681819503047
H           -5.29421549081750        1.74937563177198       -1.87072455021206
C           -6.74892501588107        3.00281304283878       -0.84789662031763
O           -7.32945609735928       -0.00518023740609       -1.88669131080714
H           -7.69017383999422        2.45955629191004       -0.99470104041670
C           -6.84084652376930        3.75107684240329        0.48030805266077
C           -6.58179346093352        4.00016016228215       -1.99413270414427
H           -5.92976061397139        4.31834625178968        0.65915829792950
H           -7.67805128325775        4.44503055844029        0.46396218531672
H           -6.98887991461023        3.06440362698837        1.30977403794097
H           -6.58798960172882        3.49778637331619       -2.95985270354842
H           -7.39046226222916        4.72708056083888       -1.98617071936051
H           -5.63974713758684        4.53508613418050       -1.89346944366561
N           -7.48981625994426       -0.98641723777139        0.17440486306317
H           -7.65600637305916       -1.68019687564271        1.82281879917867
C           -8.48798071689379       -1.93316208379644       -0.26299168714545
H           -9.30818564518386       -1.44207215377456       -0.80178898931949
C           -7.89259381694658       -3.02639608548257       -1.15760556305255
C           -9.05199822500163       -2.60002096405819        1.00265765865922
H           -7.03665568134027       -3.48102668643924       -0.66258175641780
H           -8.64581677838502       -3.78736462748269       -1.34190373679084
H           -7.56962982577055       -2.59923883386369       -2.10335702731355
O           -8.36384289006053       -2.31235940791519        2.09903194267686
O          -10.00684053814050       -3.32674717641698        0.98876704304320
