42
 energy: -62.486133507077 gnorm: 0.000480749642 xtb: 6.7.1 (edcfbbe)
N           -1.11048218948392       -1.76512610978466        0.21208935012178
H           -1.13408871167603       -2.03981412516875        1.18879468428767
H           -0.13953902909463       -1.70143202833973       -0.06954283565445
H           -2.67500122001663       -2.51195805386417       -0.50857330056003
C           -1.79560445377863       -0.48815364053452        0.01397280090438
H           -1.62807964866504        0.23583646488342        0.82211561792922
C           -1.36156498912528        0.13453660829286       -1.31298167105694
C           -3.29045955084190       -0.78374981585285       -0.06136162099928
H           -1.53070993155562       -0.56440922333719       -2.12960622092969
H           -1.93659572889642        1.03726441201696       -1.49533938967825
H           -0.30444980333277        0.38993724860029       -1.28398664194065
O           -3.54683680115784       -2.05856292931568       -0.47349499990134
N           -4.08629689807713        0.13350545661440        0.20618493112360
H           -5.20295986404201       -2.14361096227499       -0.27011484073903
C           -5.50313070057885        0.35231928980782        0.19431449478680
H           -5.71270049509171        0.85710099791489        1.14388441733973
C           -5.67216156680212        1.38704923116058       -0.95351890123248
C           -6.52361848427732       -0.77105697078872        0.05678648605718
H           -4.85370732444460        2.10039922744019       -0.83218572574468
H           -5.51342620427457        0.85881552755574       -1.89747746295240
C           -6.98933978795205        2.15970483956656       -1.03418976541544
O           -6.16328654211256       -2.04250377171363       -0.13363809226072
H           -7.79560109179128        1.45606504007205       -1.24967879278777
C           -7.30260182472468        2.89801867418783        0.26348012898760
C           -6.90589958619122        3.15461607444970       -2.19200252827660
H           -6.49138888280368        3.57727768113822        0.51832137344241
H           -8.21449447467194        3.47911384186866        0.15093391016294
H           -7.44327805876342        2.20184724715699        1.08571170953190
H           -6.68925290317485        2.64352806637291       -3.12718864346216
H           -7.85043670596249        3.68095484564477       -2.30259287230383
H           -6.12275058224412        3.88843371424400       -2.01167190710041
N           -7.74266563007002       -0.43146104651746        0.11561428022279
H           -9.10650400586457        0.80674506052421        0.30909901740759
C           -8.79073666624273       -1.42056353884020       -0.01734814100254
H           -8.61414887005741       -2.08887418476654       -0.86970842541706
C           -8.94404078648924       -2.27161199337304        1.25037073434587
C          -10.11049189534813       -0.67102415498815       -0.23234325920317
H           -9.08693323406734       -1.62675992718646        2.11567849113995
H           -9.80776852380053       -2.92197903112630        1.14405430446205
H           -8.05320697392661       -2.87580266027380        1.40040282751724
O          -10.04436216592907        0.61941447059192        0.07698374142768
O          -11.11558847584192       -1.20605546866969       -0.61131247730756
