42
 energy: -62.486133513504 gnorm: 0.000479641901 xtb: 6.7.1 (edcfbbe)
N           -1.74007212725445       -1.27611341788090       -0.47706166686577
H           -1.17563681805424       -2.11337987334208       -0.39803680433979
H           -1.19635024208659       -0.50401675144383       -0.10068975766121
H           -2.86179668754206       -0.41973536996901       -1.77767101399592
C           -2.98769818126487       -1.41627717770226        0.27526225165519
H           -3.41628456519646       -2.39219849233540        0.01266141694235
C           -2.83548225971491       -1.33160764373063        1.79074854706116
C           -3.96130678033459       -0.36922483572046       -0.25989355234368
H           -2.37482227692474       -0.38624317918181        2.07033573151563
H           -3.81513807657383       -1.38535206462381        2.25138648564775
H           -2.21884127329479       -2.14941964325078        2.15732619727941
O           -3.70289138567563        0.01359795040560       -1.52483083871837
N           -4.90339692944209       -0.00584609289390        0.48136315144487
H           -8.33354772077124        1.57884115960493       -0.15748684685267
C           -5.98641945767921        0.89075794574964        0.16874006556383
H           -6.13646341949983        1.47795720800135        1.08657555039429
C           -5.73384979777572        1.84442965847393       -1.01908719929223
C           -7.21614664354295        0.02023312800067       -0.00193223528877
H           -4.72131551024933        2.23215125594124       -0.88559083811440
H           -5.73536716441341        1.25665821164833       -1.93850120252425
C           -6.67280216265314        3.04675269831509       -1.19651328428502
O           -8.41337802073510        0.61783071312407       -0.18660295249280
H           -7.66165888787748        2.70763240029036       -1.52888967144572
C           -6.82181945450537        3.87810626552394        0.07806589412599
C           -6.11512444250542        3.92970136626720       -2.31511619436120
H           -5.84267285089470        4.18149403789898        0.44265301467155
H           -7.40000764329431        4.77637376846026       -0.12891244513932
H           -7.32740043815363        3.33596459253129        0.87553336839878
H           -5.99433445301148        3.35675366544440       -3.23129750448236
H           -6.78749231807002        4.76071325308662       -2.51622571949179
H           -5.14535053877764        4.33328506940087       -2.03312557930204
N           -7.08814586348279       -1.22345162603751        0.12304212594577
H           -6.04837198169343       -2.52422309491253        0.72117343047310
C           -8.17808817466977       -2.16118131184455        0.04796285246032
H           -9.02639250650244       -1.85005246629122        0.67230313008670
C           -8.67209370745659       -2.36912120758063       -1.38666986798383
C           -7.63419358438998       -3.49584759342671        0.59001254643236
H           -7.83270321020245       -2.61393611136807       -2.03436369546089
H           -9.38545854029872       -3.18820984797720       -1.40313497663900
H           -9.14991598806811       -1.46331447957393       -1.75108312860111
O           -6.34404437669908       -3.45339724619417        0.89800949372869
O           -8.31191480463334       -4.47911049955943        0.70849667496280
