42
 energy: -62.486133515677 gnorm: 0.000479500641 xtb: 6.7.1 (edcfbbe)
N           -1.53094036247624       -0.66730715922515       -1.81565707900464
H           -0.90106049888749       -1.36034500274737       -2.20124141006015
H           -0.97336331125604       -0.01386491433978       -1.27261155053944
H           -3.00731207869671        0.44008427207572       -2.37477318503929
C           -2.53616480251734       -1.29487411140729       -0.95874874416897
H           -2.95399906868785       -2.14233019127710       -1.51671738597323
C           -2.01061870288553       -1.78827098268779        0.38626905636349
C           -3.68161952966806       -0.30026786298872       -0.79028519381623
H           -1.56649135139865       -0.96385744837221        0.94066888873601
H           -2.83695985244030       -2.18391275238316        0.96592680837481
H           -1.26121602939722       -2.56436247782524        0.24306215887377
O           -3.76836773077160        0.60104669607880       -1.78091986591352
N           -4.43124085666194       -0.42776254759862        0.20742938380523
H           -7.74702332720178        0.24790394182284        1.65422523219849
C           -5.60397092700200        0.34901962122745        0.50884171417151
H           -5.60831047419130        0.42625300648495        1.60691119684802
C           -5.67382915788934        1.76067086515696       -0.10984039501002
C           -6.81559384612581       -0.45223764841225        0.08903352765239
H           -4.72355802306829        2.25825581264036        0.09554572368959
H           -5.76254157977761        1.64412233596233       -1.18978664365588
C           -6.81953259475687        2.64576285571565        0.39471631771801
O           -7.93684699292491       -0.31124080548373        0.89109599762905
H           -7.77102173267110        2.11476233476609        0.28011024649538
C           -6.63894605245284        3.04712656388108        1.85884362457152
C           -6.89444891546435        3.90261388058555       -0.47198616154209
H           -5.71997056844816        3.61712443166732        1.97813887852713
H           -7.46988859750149        3.66962940874190        2.18407802332647
H           -6.58612371701511        2.18534989182598        2.52196596213308
H           -7.07584459336862        3.63904961945131       -1.51083363373079
H           -7.70170532715951        4.54983955157830       -0.13653707908156
H           -5.96119010572411        4.45870283108125       -0.41601748912080
N           -6.76069187483167       -1.17664850437936       -0.92574274187193
H           -9.13364632067352       -0.26346896569012       -0.46530362932460
C           -7.80424528916932       -2.00260788329435       -1.47290143098862
H           -7.32525377152706       -2.58255811756161       -2.27033181580614
C           -8.44622399112818       -2.96801179217274       -0.46700610594125
C           -8.91513855360504       -1.17693871732722       -2.14072011695221
H           -8.98441985019226       -2.43366218859103        0.31288473029404
H           -9.13873209318805       -3.62444805283834       -0.98826243490336
H           -7.66922096773225       -3.56975739535223       -0.00099588488674
O           -9.50977855751615       -0.27017890016623       -1.36579203308892
O           -9.24913928429803       -1.35042962022270       -3.27780035839296
