42
 energy: -62.486133514873 gnorm: 0.000479818971 xtb: 6.7.1 (edcfbbe)
N           -1.45021007760080       -1.54632579579712        0.65119335497202
H           -0.49020449048080       -1.74401216624469        0.39768505982734
H           -1.88708750142111       -2.42848924398915        0.90377136939390
H           -2.46431183837225       -0.36970215916368        1.75081878033053
C           -2.17366671340716       -0.93771886455911       -0.46529176890913
H           -1.52000750967198       -0.17571659788755       -0.90733937193419
C           -2.61435523613393       -1.91752873692545       -1.55067109204582
C           -3.37082263940237       -0.20179947431321        0.11576301050016
H           -3.23228041538859       -2.70122887409266       -1.11711945739898
H           -3.20504703692059       -1.38769803371960       -2.28994711925525
H           -1.74968420153237       -2.37196370268573       -2.03012168424264
O           -3.31194871539882        0.01836751615539        1.45041447608358
N           -4.31761837471471        0.14782231665201       -0.63155200367247
H           -5.75680887101353       -0.39608934161684        1.90797930424399
C           -5.43830932680844        0.89457738244464       -0.09172842820874
H           -5.18102201017554        1.37890834010726        0.86196162728422
C           -5.83803803202943        1.93974761058525       -1.13715384438065
C           -6.50612154719145       -0.14526029454741        0.14720573620644
H           -5.03114472422327        2.67334733713410       -1.19246631056858
H           -5.89610300594430        1.42347653085599       -2.09447274994040
C           -7.16534324516746        2.65628015780406       -0.87160019619477
O           -6.48255083345458       -0.73649281484552        1.36702281465373
H           -7.97477798937315        1.93471878605260       -1.02230330299972
C           -7.25595114167502        3.21391293620922        0.54727716731727
C           -7.34037106570946        3.78166669607072       -1.89005906576088
H           -6.39702304040133        3.84631880082478        0.76289547057525
H           -8.15635237416591        3.81428537503758        0.65769182811577
H           -7.29606001195496        2.41689591993948        1.28594102024050
H           -7.26803799424897        3.39330281913451       -2.90276312669319
H           -8.31193978594294        4.25601309906313       -1.77204414504201
H           -6.57119964897724        4.53921826608947       -1.75592413756523
N           -7.28255160906998       -0.49608815187259       -0.77902227280221
H           -9.02309262170303        0.50541205730805        0.20453685778749
C           -8.22194423874527       -1.58382322687847       -0.59559750488631
H           -8.87165584627353       -1.56401250868314       -1.48434944118803
C           -7.53701061194441       -2.94631061157369       -0.51052736003369
C           -9.13986584420733       -1.36582191801227        0.61347555095359
H           -6.89883214615698       -2.98369347245182        0.36801462232238
H           -8.29083980438496       -3.72343876736658       -0.42480022405503
H           -6.93585951477769       -3.11151217256028       -1.40100608618079
O           -9.47547543839538       -0.08398552400690        0.82888524331109
O           -9.57466418584641       -2.24758530451260        1.29426251198809
