42
 energy: -62.486133513542 gnorm: 0.000479996759 xtb: 6.7.1 (edcfbbe)
N           -2.21923262810337       -2.16561795985412        1.16295155891158
H           -2.24562813787152       -1.88574408409718        2.13804788499309
H           -1.33715512651988       -2.63550881933803        0.99658520275749
H           -4.09648657449337       -2.42452712119092        0.79391837447203
C           -2.36384513401858       -1.00443531291583        0.28776087159519
H           -1.80381892368853       -0.12039694029205        0.62257219004896
C           -1.92058017464668       -1.36708530025149       -1.13020982741089
C           -3.84438576993037       -0.64844947966132        0.25796563435547
H           -2.48338263830813       -2.22566970776433       -1.49113499319156
H           -2.09276115331224       -0.52318664055814       -1.79157908290172
H           -0.86092950784971       -1.61335060303327       -1.14425040175843
O           -4.66610106157808       -1.66982946976042        0.53594694846081
N           -4.16829998016207        0.52490642664789       -0.04919589276503
H           -5.90376485927595        0.02099845079227       -2.30945591746685
C           -5.52550160941732        1.02197292038311       -0.13250755505321
H           -5.79124801150858        1.37800228626604        0.86986603651327
C           -5.52070624730651        2.20997921216089       -1.10670257711435
C           -6.55025789573296       -0.02431533215606       -0.50919121076535
H           -4.85230052237257        2.96512299780425       -0.69113170049385
H           -5.08106548543080        1.89531590319735       -2.05877589334231
C           -6.90277568454831        2.82383783877327       -1.35866971832449
O           -6.56920013625702       -0.44848798747005       -1.79074460670928
H           -7.56110730580781        2.06284125011178       -1.79359640491110
C           -7.54268852882870        3.32360176069227       -0.06573989091923
C           -6.77039186010254        3.97162799939602       -2.35889244544679
H           -6.87421994353672        4.01075639496716        0.44857118032433
H           -8.46912007717041        3.84837866797754       -0.28733664635441
H           -7.77601886845033        2.49627128322553        0.59915715890778
H           -6.32364598992347        3.62840074689904       -3.28978424002066
H           -7.74641100728351        4.39381568306849       -2.58490118960619
H           -6.14287326607134        4.75930558654614       -1.94761401951955
N           -7.30490593882653       -0.49111485423843        0.38361465650033
H           -7.95211098426712       -0.45437547166220        2.06628267034222
C           -8.29047688367374       -1.51058230101931        0.10269766390998
H           -8.86775183225940       -1.27802536469890       -0.80108051568552
C           -7.65647537667934       -2.89663539838048       -0.05759047867344
C           -9.24272936373766       -1.55699344993951        1.30596045671333
H           -7.04228334145947       -3.12155878892477        0.81133934400399
H           -8.44187557280931       -3.64170679190838       -0.14861128160106
H           -7.03031129185224       -2.91499584786367       -0.94526288039312
O           -8.79682557321216       -0.87521508689453        2.35476356584034
O          -10.27454093765527       -2.16935320877416        1.30489336297005
