42
 energy: -62.486133527212 gnorm: 0.000478625604 xtb: 6.7.1 (edcfbbe)
N           -1.54208770993699       -2.12669434334842       -0.13960493182773
H           -1.31489313667557       -2.19501806583689        0.84655530885513
H           -0.71515119853612       -2.37706226230961       -0.66770530671877
H           -3.43298841442262       -2.54356370708228       -0.22159984450927
C           -1.98676892937939       -0.77603649720807       -0.48038967391770
H           -1.43008587005676        0.01953019977649        0.03482208983097
C           -1.88297881881449       -0.55876162885991       -1.99029776219204
C           -3.45264616064103       -0.67101237153710       -0.08511331854727
H           -2.44618494622321       -1.32465129123640       -2.51945597308886
H           -2.28825460742597        0.41573029831950       -2.24349446766839
H           -0.84352166825478       -0.60345813862934       -2.30870948501516
O           -4.09962070957977       -1.84949548781870       -0.03931745545784
N           -3.93886380451940        0.46772556137406        0.11654313532176
H           -5.21241662966856       -0.95440544480195        2.14954200102471
C           -5.31910696111730        0.76475504335396        0.42987328678415
H           -5.28968087922277        1.29992237337788        1.39133648880582
C           -5.82398912445302        1.72465762330778       -0.65771537228297
C           -6.22776611119642       -0.43403650087189        0.60346672122617
H           -5.03247443833591        2.45380335163042       -0.83756303472903
H           -5.96150702241416        1.14408633139132       -1.57032601743948
C           -7.12498279125009        2.45251935885215       -0.30293606041892
O           -6.04116233893336       -1.18481950816759        1.71343667388458
H           -7.82308835913403        1.72867150460602        0.12719215929941
C           -6.88162476242705        3.56644051497634        0.71312103476035
C           -7.75063656488218        3.03479177936584       -1.56919517306490
H           -6.20074266133043        4.30965432378621        0.30355999490040
H           -7.81762986480692        4.06097537293588        0.96252541189207
H           -6.45180864564465        3.17848520120526        1.63315075575662
H           -7.98247150405722        2.24947338382020       -2.28419883294454
H           -8.67194708897080        3.56048473238480       -1.33026810760198
H           -7.06740849085786        3.73877923165534       -2.03927838614844
N           -7.16488916051273       -0.64372003669834       -0.20868191172340
H           -7.92951738990848       -0.31433577604171       -1.79463018183117
C           -8.07256829804435       -1.75774912900638       -0.07176160347374
H           -7.54341627759833       -2.68537887113202        0.17871252085941
C           -9.14170860764255       -1.49319547082565        0.99449039552358
C           -8.77523818598277       -1.92865405887680       -1.42706905325474
H           -9.65404229959231       -0.55636223549084        0.78345431371179
H           -9.86551428161099       -2.30317266548604        0.98540164401269
H           -8.67843973632952       -1.43208402205791        1.97591545463032
O           -8.55632123204612       -0.91911517620732       -2.26144298995239
O           -9.47004557622446       -2.86972915977275       -1.69340946521054
