42
 energy: -62.486133506533 gnorm: 0.000481017962 xtb: 6.7.1 (edcfbbe)
N           -1.50412148239226       -0.59711342408350        0.72765667126098
H           -0.72948473604310       -1.23584552489944        0.59338846506388
H           -1.64461342947647       -0.49624588222815        1.72919110595464
H           -2.13967883603808        1.08904986330162        0.05078320481163
C           -2.72363120773899       -1.12353694798070        0.11278370952243
H           -2.46228467795549       -1.42011734171504       -0.91199822945628
C           -3.34748140788820       -2.31231213638535        0.83672335150646
C           -3.69810051231401        0.04223686944840       -0.01210078792615
H           -3.61669585655835       -2.03581568897507        1.85292197033216
H           -4.24898539829497       -2.61912023959271        0.31946433299912
H           -2.64845706648890       -3.14562466165018        0.86799289018862
O           -3.09274891538755        1.24712952991645       -0.10750991736363
N           -4.92643322426359       -0.19776734225032       -0.01144120490199
H           -7.90190974846407        1.18049417912359       -1.73446362982900
C           -6.00212044235528        0.75095182826690       -0.16722822345761
H           -6.17622336237499        1.21299717233557        0.81553115833907
C           -5.77110577178901        1.86316073541037       -1.20625987662527
C           -7.22727798983283       -0.10466013124496       -0.47198186914990
H           -4.71934957338942        2.14323917040404       -1.17368089073159
H           -5.95562729993468        1.46265362797254       -2.20892990830793
C           -6.60598226187160        3.13129656949086       -0.95628062969818
O           -8.15270846344209        0.33066922773863       -1.35069093273552
H           -7.61410528034213        2.86361903203186       -0.61337560970779
C           -5.96114777830101        3.98689791484621        0.13249038289648
C           -6.73090045481344        3.93970842025268       -2.24750003197941
H           -4.97516820585851        4.31885572032803       -0.18434490280658
H           -6.57101946551274        4.86327927979998        0.33958704610290
H           -5.84924379042830        3.42421869226384        1.05605000273468
H           -7.23782299433220        3.37159487634283       -3.02606510198437
H           -7.29623525771634        4.85199947113028       -2.07225711282609
H           -5.74433244839506        4.21452257897462       -2.61414993248173
N           -7.32928657428835       -1.19119333518400        0.14953270368903
H           -6.55075584505208       -2.30784396904495        1.26965629188736
C           -8.40428931752903       -2.13664253711595       -0.00494356524919
H           -9.37287152869128       -1.68240421623562        0.24093806790762
C           -8.48768396127176       -2.74462030856594       -1.40895325337864
C           -8.12430331084601       -3.26689492370793        1.00439929947065
H           -7.51421611338333       -3.13412257608344       -1.70028556003745
H           -9.20896836123209       -3.55714817968004       -1.40152702579612
H           -8.79812916339527       -1.99070042658679       -2.12726535755724
O           -6.95175015922633       -3.14990996466953        1.61026298494579
O           -8.88893962056658       -4.17096090546399        1.20281520636636
