42
 energy: -62.486133515142 gnorm: 0.000479135430 xtb: 6.7.1 (edcfbbe)
N           -1.64819603657913       -1.50407068729302        0.64065563711833
H           -1.22787864968376       -2.40336391543540        0.43666219459303
H           -1.68175590706007       -1.40652931466962        1.65201556312353
H           -1.53953275745395        0.32266036617196        0.17369670797989
C           -3.00549441264592       -1.42827818068632        0.09671336461325
H           -2.95785130569088       -1.77805057560310       -0.94290817958675
C           -4.03423682610459       -2.25226985229756        0.86033528888114
C           -3.40210460461873        0.05831730894369        0.02414834856237
H           -4.06388589171314       -1.94463305921158        1.90425666611209
H           -5.01082063427704       -2.08363519723116        0.41949494213832
H           -3.79123521796572       -3.31224553991989        0.81445237983803
O           -2.32695540665201        0.88938383375160        0.04596053785117
N           -4.53620128752956        0.51532004254844       -0.09474548865725
H           -7.65504004108683        1.15776280479027       -1.90156933832723
C           -5.81784138090547        1.02987978564941       -0.23312898733429
H           -6.10902200541841        1.39079619788610        0.76726305242346
C           -5.81119243575023        2.24686300985556       -1.19059920548210
C           -6.87505126991975       -0.02072757824142       -0.59935542003211
H           -4.83805627822620        2.72572481574357       -1.07048394351099
H           -5.85324495318040        1.89806851126575       -2.22753298249830
C           -6.91053116393265        3.28540463209143       -0.90832194044935
O           -7.78654678089755        0.26872704213401       -1.54838724579584
H           -7.84522249486642        2.78163836866643       -0.62936569182462
C           -6.50661619399537        4.18621958734646        0.25729609769750
C           -7.16978557826718        4.13198816196301       -2.15458223318327
H           -5.61887870749745        4.75934650351673       -0.00001458995732
H           -7.30792251860699        4.88162919545065        0.49636972326014
H           -6.28762925762609        3.60031926136065        1.14667028310853
H           -7.51947295265216        3.52189537486320       -2.98610642198150
H           -7.92399261487040        4.88818831532413       -1.95037688958458
H           -6.25604751983418        4.63546294382775       -2.46211397813178
N           -6.86270845982104       -1.13435405213234       -0.00815598868705
H           -6.73421653292477       -1.86204958757745        1.69085180488571
C           -7.84330792495622       -2.15738583718323       -0.29832973815454
H           -8.81107830902250       -1.72673629351883       -0.58922415527751
C           -7.36634095880877       -3.08867760970487       -1.41646115208570
C           -8.06066199949869       -2.97902760991105        0.98108706240630
H           -6.38563083942444       -3.49228862784947       -1.17448430926804
H           -8.07221307099636       -3.90771010175769       -1.52082408465073
H           -7.30304833744133       -2.54230133061000       -2.35417690245623
O           -7.29962173992546       -2.60279706044482        2.00400042641191
O           -8.84914985865010       -3.87977151972851        1.04855931905214
