42
 energy: -62.486133517826 gnorm: 0.000479224344 xtb: 6.7.1 (edcfbbe)
N           -2.10499709979444       -2.27415097399923        0.76252208649820
H           -2.23831646867921       -2.21729383407327        1.76715331325206
H           -1.17914999388159       -2.64891903759865        0.59225299120884
H           -3.92695141632276       -2.53361936769336        0.16028226116702
C           -2.25341674707839       -0.95658135141488        0.14789910604362
H           -1.77486158701549       -0.14313473270873        0.71022441339519
C           -1.68702860995419       -0.98250625945531       -1.27259088447627
C           -3.74463324001129       -0.66809226500137        0.06475789602466
H           -2.16451872565859       -1.77010496322982       -1.85255607306927
H           -1.86591938783549       -0.02492474599457       -1.75329738352624
H           -0.61549576812519       -1.16856256173978       -1.24948110652751
O           -4.51739725318621       -1.76756228080887        0.00695932230871
N           -4.12713435791395        0.52619558162510        0.03487342825401
H           -5.79223695989596       -0.38017141441706       -2.09206829371643
C           -5.49901614281123        0.96451917315576       -0.07966835986308
H           -5.74818250262425        1.41212166676931        0.88877245871097
C           -5.54911151066443        2.05611857752191       -1.16282615569163
C           -6.51892089278453       -0.12049130136890       -0.34328616518541
H           -4.87690373977182        2.85548370372259       -0.84847836843526
H           -5.14816327880894        1.65379532399588       -2.09895457762091
C           -6.95082827802312        2.62271476359278       -1.41594404585489
O           -6.52822172740617       -0.70361681990980       -1.55864692555915
H           -7.60971125413872        1.81087991400704       -1.74449250791931
C           -7.54754141470421        3.24182225283961       -0.15475187490774
C           -6.87904004279965        3.66454303555439       -2.53162075192570
H           -6.86859577048556        3.98155276388609        0.26379998916215
H           -8.48779232580896        3.73420881812485       -0.39115223900532
H           -7.74637595148651        2.48157048210076        0.59558206757309
H           -6.46519765731097        3.23408828694345       -3.44117873746560
H           -7.87097980678278        4.04783677480224       -2.75732079168182
H           -6.24950045802587        4.49858013666909       -2.22918863596270
N           -7.34455185900343       -0.40351203366352        0.56551409686192
H           -8.15646246923303       -0.01344700793333        2.13485807984878
C           -8.35914823954744       -1.41722081189489        0.37960844101731
H           -8.82661426675928       -1.35306291545121       -0.61091742841403
C           -7.78207173283325       -2.82488846801142        0.56624901993574
C           -9.42947690904548       -1.18875523343635        1.45478177205842
H           -7.30614991928028       -2.90233135900320        1.54166486976410
H           -8.58290237901407       -3.55560877647065        0.49853893470212
H           -7.03994446988750       -3.01966722679356       -0.20324490262545
O           -9.04993325761812       -0.33573772875457        2.40036444751958
O          -10.49279541133387       -1.74409346965308        1.45394202207065
