42
 energy: -62.486133519683 gnorm: 0.000479139076 xtb: 6.7.1 (edcfbbe)
N           -1.33822654499375       -1.37312579730004        1.00512263230641
H           -0.34713119875803       -1.54288146573787        0.88414203000667
H           -1.78712855875197       -2.27238269649883        1.15673433221534
H           -2.53818913939610       -0.18816374611065        1.98321569527471
C           -1.90808719786757       -0.72544536404389       -0.17432779613119
H           -1.25844182802730        0.12495362255501       -0.42134895058673
C           -2.04145950734255       -1.62602214564414       -1.40123844495634
C           -3.24823208416193       -0.14112198821545        0.24840106633467
H           -2.70622269168947       -2.46039450987125       -1.18648037877193
H           -2.45263569753403       -1.05710746068621       -2.22848827077481
H           -1.06734786362649       -2.01623463129943       -1.68965926376456
O           -3.35283117064540        0.14077216187812        1.55416192481857
N           -4.13869774914903        0.06696751209344       -0.61663796406596
H           -5.19305557274078       -1.07161682917403       -1.83526116142263
C           -5.43475029011024        0.60520439501404       -0.25352265138867
H           -5.50471945132419        0.85705428454777        0.80897425761783
C           -5.69117954254096        1.85235962863487       -1.11816320477820
C           -6.44519564637736       -0.47263922471186       -0.57636440751288
H           -4.90663027605650        2.57818898960315       -0.89275431690704
H           -5.58125338339289        1.56192071910308       -2.16607193183825
C           -7.06244668702963        2.50196583464275       -0.91173757166135
O           -6.09998461508767       -1.31001987359091       -1.56650882153939
H           -7.83647854494737        1.74379839766227       -1.06482876073314
C           -7.21344897631113        3.07251368872844        0.49593010009497
C           -7.25819738872544        3.60870202309732       -1.94716071786615
H           -6.44624314529440        3.82060734414116        0.68600382011003
H           -8.18697279534832        3.54371201438947        0.60528822199462
H           -7.13080118351715        2.29157091463504        1.24631366046621
H           -7.18823276499196        3.21171004315158       -2.95736910758857
H           -8.23615559671130        4.06813812923773       -1.82828637072797
H           -6.49993032713950        4.38003431851498       -1.82757824394431
N           -7.53180970437039       -0.52238965777314        0.05893127175989
H           -8.79291427818571        0.35734993460607        1.02489104379716
C           -8.54306660791811       -1.51181323276500       -0.24178180465667
H           -8.64723736459997       -1.67685812913157       -1.32208800524154
C           -8.23752789980581       -2.85224801741385        0.43459352534977
C           -9.87639972368943       -0.98038770681605        0.30556033497615
H           -8.07576638215937       -2.70151027230321        1.50008417570065
H           -9.07892354199099       -3.52472151764771        0.29289139058760
H           -7.34418905535132       -3.29235463134468       -0.00173876893821
O           -9.75027747192547        0.12111238854598        1.03521010847964
O          -10.92777181010334       -1.52122326907775        0.10188233450773
