42
 energy: -62.486133509943 gnorm: 0.000480386690 xtb: 6.7.1 (edcfbbe)
N           -2.22121562120455       -0.37987979933549       -1.83310158714721
H           -2.28786143953703        0.59326188328782       -2.11407618532038
H           -2.21133193459946       -0.94587521025538       -2.67420244345511
H           -1.30523445315346       -0.35037010245768       -0.10633401055774
C           -3.35035004442279       -0.75106102556430       -0.97675690582129
H           -4.32084873117315       -0.43449675897627       -1.38319513719814
C           -3.33363502195609       -2.27064922791537       -0.79822116709796
C           -3.08701411961823       -0.05058985417873        0.36453399029704
H           -2.37899697389428       -2.58730148040318       -0.38247833133193
H           -4.12988926649153       -2.59786360041845       -0.13726039817953
H           -3.47148692191902       -2.75576635213583       -1.76283583852522
O           -1.79170386403643       -0.05552403711503        0.69105615593982
N           -3.86986249638680        0.56090384142017        1.14051623810954
H           -5.12638350328728       -1.51181262054895        1.98638691031790
C           -5.30575388193603        0.66569149662489        1.05134381889256
H           -5.64092253833917        0.80962790207146        2.08947342876723
C           -5.67672011811227        1.91445188464035        0.23597234508229
C           -5.97022068884709       -0.58751323652567        0.53266288539732
H           -5.01416859921009        2.72096978816602        0.55510230716460
H           -5.46958785621477        1.70543236783232       -0.81487528153180
C           -7.13598299361406        2.35727254657510        0.39411011541094
O           -5.73831653116099       -1.70476408073991        1.26277969887707
H           -7.77603107889563        1.47240562817845        0.33210505184923
C           -7.36938318668685        3.04022880803550        1.73966572605757
C           -7.50965519280225        3.30941120484526       -0.74106885805008
H           -6.75365896646597        3.93312692783380        1.82269712728197
H           -8.41212625756709        3.33333744108689        1.83678993445554
H           -7.12731744280124        2.37950086052348        2.56796561361853
H           -7.39998316128787        2.82615247174311       -1.70925135118894
H           -8.54186489024178        3.63533684023022       -0.63858335016506
H           -6.87026373209496        4.18933357220186       -0.72146168730796
N           -6.69281098289320       -0.57075025962607       -0.49565826474854
H           -7.20482025439770        0.26430917590334       -2.05613811918130
C           -7.31575754254931       -1.75503951677778       -1.03637894014434
H           -6.72880810090929       -2.66452117679490       -0.86125311592596
C           -8.72073813227459       -1.94218312503227       -0.45252134777743
C           -7.45620588528615       -1.52078771336116       -2.54718389538967
H           -9.31304869749239       -1.04236751663544       -0.60756121799193
H           -9.20866073613595       -2.77933964526221       -0.94357198253703
H           -8.65180366709806       -2.14060725122191        0.61444599873556
O           -7.39581467325478       -0.23538237585298       -2.88278202127888
O           -7.61994722384037       -2.40397089329159       -3.34021745155512
