42
 energy: -62.486133517164 gnorm: 0.000479226806 xtb: 6.7.1 (edcfbbe)
N           -2.08835316947213        0.04849544945266        0.86471929924548
H           -1.34117943770633       -0.32946120745949        1.43864179921029
H           -2.65095822612564        0.66261275288249        1.44454914011583
H           -3.82549246506407       -1.27687166271479       -1.90142174934060
C           -2.93355980891420       -1.02955706877601        0.37509071600728
H           -2.36860436397333       -1.54995427289278       -0.41369900594433
C           -3.34002634454843       -2.04653341341765        1.45316347106743
C           -4.17975443117875       -0.41001949374277       -0.21727764047474
H           -3.91296056872800       -1.54206900937837        2.22655769497564
H           -3.94822872374714       -2.84132329871189        1.03024533589201
H           -2.45135414097307       -2.49072866946668        1.89755533219386
O           -4.48577604551051       -0.69619651712637       -1.50307942442091
N           -4.88285306298746        0.32899669105959        0.51874950685631
H           -8.13757211249641        1.24368713882710       -1.27076248381227
C           -6.07223243323471        0.97166176646615        0.01296647241664
H           -6.43378581240909        1.59161208738628        0.84709679422311
C           -5.81140285538802        1.87479039659289       -1.21207776557143
C           -7.15364055939946       -0.05701727049138       -0.25341148438740
H           -4.73528990770000        2.04628822220972       -1.27560361724561
H           -6.09864914064577        1.34431505619752       -2.12377446327378
C           -6.51322190295674        3.23955598833510       -1.13956552074882
O           -8.23023451099026        0.33148031871237       -0.96807578679963
H           -7.54033152663179        3.11626490335475       -0.76836703166018
C           -5.77679378207857        4.16951485567899       -0.17767007632630
C           -6.57938621828638        3.86792855435363       -2.53072683049247
H           -4.77703310762984        4.37933868771480       -0.55095272017997
H           -6.31034496274550        5.11157097630644       -0.07454034748166
H           -5.68337656119649        3.71856832755506        0.80716963129032
H           -7.14597308382770        3.24294643826446       -3.21856722308723
H           -7.05664316710726        4.84399219458507       -2.48508562525338
H           -5.57693451869825        3.99589662098990       -2.93260229232014
N           -7.03255227019352       -1.21338940397099        0.22548657044330
H           -6.26752036025811       -2.25382480205433        1.46386554762364
C           -8.01981727180908       -2.24771249477368        0.02740528356379
H           -9.03656131606099       -1.88168962495173        0.22163752161800
C           -7.96683925257131       -2.82848419171979       -1.38906956886396
C           -7.70254962372716       -3.36518579790728        1.03414347720913
H           -6.94988197464652       -3.13685910037906       -1.62370666311808
H           -8.62368007755436       -3.69189967006331       -1.44533292687343
H           -8.28530288937431       -2.08107505961220       -2.11107712674901
O           -6.60792677927024       -3.13704154764137        1.74977971328250
O           -8.37161249526820       -4.35464948248205        1.14655906217735
