42
 energy: -62.486133505737 gnorm: 0.000481110389 xtb: 6.7.1 (edcfbbe)
N           -2.31447258307311       -1.38519803766895        1.70780662026635
H           -1.86654313980766       -0.57888039179091        2.12891558387786
H           -1.62965881120596       -2.12837456589414        1.64193811513273
H           -4.15338502298647       -1.28200315154773        2.24208593918814
C           -2.85635743962581       -1.05385331346402        0.39196640919599
H           -2.21287495446971       -0.39500884347555       -0.20622015579909
C           -3.13320347921778       -2.33946518667004       -0.38950265118691
C           -4.19340454518388       -0.36592998255442        0.61014374893470
H           -3.77613067525459       -2.99773148048804        0.19082488231006
H           -3.62830343151468       -2.09687545419782       -1.32484593763294
H           -2.20230365249450       -2.85913699131426       -0.60701708080907
O           -4.80178525562238       -0.72587835675242        1.75562110980105
N           -4.57238160993524        0.49737351491164       -0.21766013832352
H           -8.10236485487344        1.35695148445351       -1.24331174496704
C           -5.88951629461627        1.07947844822843       -0.27407081634332
H           -6.07412883578855        1.65221791735682        0.65273886526190
C           -5.90555114247960        2.04217305717350       -1.47789094472181
C           -7.01309190613921        0.05755010415391       -0.32282231853652
H           -4.86237516822704        2.23489606825013       -1.73104634397088
H           -6.34667613235409        1.54239410497011       -2.34486703598565
C           -6.60722308068099        3.38394993452374       -1.21456687175539
O           -8.16711784108539        0.45289949566774       -0.91158247682963
H           -7.53764218877388        3.22014717603798       -0.65330021217118
C           -5.71508177990878        4.29923215048943       -0.37848219316554
C           -6.95897484817743        4.06243904597885       -2.53768570802138
H           -4.81474966502348        4.55293023809409       -0.93319269401405
H           -6.23794045265371        5.22008177557318       -0.13027538069898
H           -5.41775947658455        3.81429860548098        0.54801954161705
H           -7.63914695841846        3.45011718825360       -3.12706407831707
H           -7.43569414546405        5.02320054561141       -2.35805706064256
H           -6.05814773885484        4.23162715370007       -3.12301735584917
N           -6.89158505047835       -1.07810558174268        0.19998371243797
H           -6.13627015981755       -2.08301017116884        1.57878999086809
C           -7.95626813061972       -2.05276174006763        0.15232372624311
H           -8.92587328365549       -1.60609121545194        0.41248194916234
C           -8.07035359942602       -2.70170247821472       -1.23072693298678
C           -7.64117289108251       -3.14459551189696        1.18525630613325
H           -7.09742977183036       -3.07622224448982       -1.54297897147410
H           -8.77089012542396       -3.53023307029396       -1.17691589368269
H           -8.42185807120416       -1.97494395640001       -1.95835330083665
O           -6.52276546039572       -2.94785088125314        1.86650135755218
O           -8.34773763253596       -4.10213150096507        1.34899197635018
