42
 energy: -62.486133520088 gnorm: 0.000478742593 xtb: 6.7.1 (edcfbbe)
N           -2.59819251690459       -2.57001520285570        0.60102538937234
H           -2.96770044522271       -2.74266027668536        1.53042682996150
H           -1.66556951156383       -2.96408181555895        0.55891014783521
H           -4.22277221919732       -2.52135992026737       -0.47389318570296
C           -2.56825081574025       -1.13618880161673        0.31897593530466
H           -2.21101807831228       -0.52160482517594        1.15629331319350
C           -1.69310523425022       -0.87115323250050       -0.90681786303865
C           -3.99413187550721       -0.71974077987605       -0.00474921778509
H           -2.03922177651028       -1.46568608346460       -1.74987819191884
H           -1.74230381741911        0.18153194835755       -1.16867699149787
H           -0.65835250014272       -1.13341328865958       -0.69710105813624
O           -4.74220986355934       -1.69491226728833       -0.54933417639065
N           -4.34333674094946        0.46464287935079        0.21617332512265
H           -6.42271240668216        0.09832234855399       -2.23093202436531
C           -5.65576301777549        1.00973403111006       -0.05405930465072
H           -5.93915151476069        1.50096700187342        0.88421856638143
C           -5.51138332465046        2.07758420938289       -1.14821819869286
C           -6.72829637640129       -0.02262774580779       -0.34381385463720
H           -4.72906731964942        2.76357353453329       -0.81846112501583
H           -5.14554166691767        1.61019301090477       -2.06992919858489
C           -6.79336276027460        2.86866654122292       -1.43801332926355
O           -7.01785191839459       -0.34906643489835       -1.61716822382845
H           -7.59853336340121        2.17594048234221       -1.70783463330170
C           -7.24563327790794        3.67054375190898       -0.21996669585113
C           -6.55000293696937        3.80618018466027       -2.62051876050234
H           -6.44096787064987        4.31132454735508        0.13379903039384
H           -8.09438535586851        4.29820312458181       -0.48124862860883
H           -7.55125767961535        3.01451187056099        0.59065070868101
H           -6.24836878573024        3.25028622090969       -3.50615048965651
H           -7.45483618496302        4.35949025713197       -2.85915751055354
H           -5.76511359667345        4.52008790759172       -2.38035873576160
N           -7.30661171694769       -0.55134428390514        0.64469627586636
H           -7.72168640746924       -0.54095190437617        2.39915969579155
C           -8.32830496441225       -1.56099664456007        0.47914185442458
H           -9.03142944311202       -1.30122137779670       -0.32218989373728
C           -7.72544326229969       -2.93801097290327        0.17988274182611
C           -9.09412779721185       -1.64970090604148        1.80620259655087
H           -7.01835411488235       -3.20890703826643        0.96128874796844
H           -8.52000575110610       -3.67778571449614        0.14386487359247
H           -7.20492016480338       -2.91035050689576       -0.77338977028903
O           -8.50953220359582       -0.98382094209731        2.79599237536211
O          -10.10738059514781       -2.27820850884496        1.94009353909232
