42
 energy: -62.486133525123 gnorm: 0.000478632776 xtb: 6.7.1 (edcfbbe)
N           -1.27619859923839        0.24024262308397        0.25195057831106
H           -0.38985896562754       -0.12123231970385        0.58739366300906
H           -1.90547906744279        0.33802171477124        1.04176012054101
H           -3.06363260322391       -0.36487494206933       -2.83604817255887
C           -1.86388442826399       -0.67256292935392       -0.70745998270613
H           -1.32007090524082       -0.54758006515255       -1.65674782130633
C           -1.80341264609848       -2.15554176497222       -0.29263697775076
C           -3.31765608855099       -0.30377233947003       -0.90335269593647
H           -2.34817987570223       -2.29259453248084        0.63863532543169
H           -2.24717253930337       -2.79312794406052       -1.05455562563232
H           -0.76851438625913       -2.45887284230808       -0.14859308180259
O           -3.78405644433352       -0.31073192466181       -2.19614299637525
N           -4.01754121271123       -0.09048035245589        0.10964202748672
H           -5.13738703338834       -1.47442285162303       -1.53901934306358
C           -5.39781369204318        0.32092341873599        0.17790144233813
H           -5.60114774446839        0.45991908741350        1.24413405664675
C           -5.55391248132995        1.67679585222750       -0.55150979731661
C           -6.40509794191781       -0.68643020471851       -0.34371513419492
H           -4.75075537447248        2.32144713810181       -0.18492955448169
H           -5.38550482165766        1.50827180750058       -1.61785643545969
C           -6.89337230789024        2.39279113090411       -0.37020054517843
O           -5.99968942031541       -1.68060007365684       -1.15281659166227
H           -7.68898157004854        1.75140152344057       -0.75787518965123
C           -7.18405201540210        2.70896655065484        1.09419451798269
C           -6.87880621933987        3.68423735295943       -1.18789273737119
H           -6.38737386531142        3.31858530435572        1.51595966719290
H           -8.11777755734451        3.25956660165469        1.17688533934157
H           -7.27429312012194        1.80012862179953        1.68249654836792
H           -6.69144817644363        3.47613843178226       -2.23886861676480
H           -7.83663704497666        4.19154281026422       -1.10649738490173
H           -6.10246257620315        4.35586852928028       -0.82669159052818
N           -7.61739925211995       -0.51463310220571       -0.03637435570491
H           -8.98560493752344        0.51312388400506        0.66220228898889
C           -8.64673962191146       -1.40058963554153       -0.53087423859001
H           -8.50347499950296       -1.64352409909492       -1.59193513432985
C           -8.69696237526293       -2.70751241137091        0.26957810501576
C           -9.99321041482340       -0.68516045674358       -0.35963727207010
H           -8.80294194152219       -2.48948895165298        1.33048999884456
H           -9.54670333517944       -3.29863302585651       -0.06007983951752
H           -7.78059660107147       -3.27103268186379        0.11303919777335
O           -9.93026930185691        0.39165370411301        0.41507875314462
O          -11.01011774873125       -1.07825206629144       -0.86009536185692
