42
 energy: -62.486133508997 gnorm: 0.000480733115 xtb: 6.7.1 (edcfbbe)
N           -2.10533809532879       -0.70192794671109       -1.65479121803870
H           -2.08298327101637        0.21238356580888       -2.09494113558621
H           -2.04976390196729       -1.39992610164576       -2.38800948728792
H           -1.37826444300051       -0.44363483825475        0.12516494205220
C           -3.34080413407798       -0.86966437285357       -0.88276581445777
H           -4.24841118331907       -0.57165441554373       -1.41883789498212
C           -3.45900055118603       -2.33572008906447       -0.46097590014389
C           -3.17898820354514       -0.03053657227677        0.38508495136836
H           -2.55218817562237       -2.65286910065493        0.05053554012624
H           -4.30221726928730       -2.45857457486024        0.21101442897378
H           -3.61078454856425       -2.96902685715366       -1.33241031836146
O           -1.91660512758986       -0.03061785141834        0.83190258001450
N           -4.01228790822037        0.62209577262560        1.06488386422291
H           -7.18793528411269        0.05666653022741        2.25284601403964
C           -5.39912629301867        0.90676346009716        0.86006025103400
H           -5.71960831829530        1.32686347650315        1.82603812581644
C           -5.55248216505501        2.00323948789077       -0.21799681309156
C           -6.34700931572286       -0.22633486982173        0.51749257924635
H           -4.80712075800177        2.77467103001654       -0.01704490230125
H           -5.32495140924325        1.54615424250499       -1.18178864649972
C           -6.94840579762711        2.63467205576080       -0.27531246123571
O           -7.32791802884613       -0.47297228210780        1.45743074513305
H           -7.70065762508412        1.83789493931784       -0.29573113832586
C           -7.21387252676156        3.53813860186385        0.92733069842605
C           -7.08659073218314        3.44114172572414       -1.56539598197582
H           -6.48251023660210        4.34263318773183        0.96033651703788
H           -8.20539479530996        3.97866118761949        0.85354504993427
H           -7.15928239382971        2.99170506821575        1.86585233750377
H           -6.96828468106376        2.79769714254955       -2.43371198498629
H           -8.06757476326190        3.90687090649889       -1.61833491545508
H           -6.33116238447775        4.22294425074039       -1.60654929738390
N           -6.24948599666689       -0.85602632076318       -0.55885457961053
H           -8.71311469354188       -0.66099630580728        0.25089179470147
C           -7.10680739333017       -1.91145870979066       -1.03648424086266
H           -6.59866362416294       -2.31927257597447       -1.91809600170746
C           -7.38522567565504       -3.05084153809229       -0.04808863045043
C           -8.44591891296044       -1.33833620558196       -1.52904413964259
H           -7.92502772845599       -2.70307852072863        0.82953692217430
H           -7.97602021631476       -3.81650765206827       -0.54512435119940
H           -6.44587338892900       -3.49191518550275        0.27793265173033
O           -9.16085177054376       -0.68286833241709       -0.61522450739342
O           -8.83167753459461       -1.47845626275032       -2.65342897849994
