42
 energy: -62.486133515384 gnorm: 0.000479484075 xtb: 6.7.1 (edcfbbe)
N           -2.25721709798701       -0.91022065297520       -0.43276422852244
H           -2.04327569095672       -0.06054075700568       -0.94446165536926
H           -1.98693076047014       -1.70144728862266       -1.00651493141541
H           -2.19181849761367       -0.45544574152739        1.54087330585605
C           -3.67568880113893       -0.97724497937851       -0.08764414799395
H           -4.34480115090667       -0.79585118075101       -0.94282178245129
C           -3.96899786972581       -2.35409348629534        0.51131245207118
C           -3.90807098797110        0.06694797928090        1.00797718544088
H           -3.29950933804026       -2.54707144874139        1.34696377200322
H           -4.99223714476356       -2.39376970338161        0.87247875198855
H           -3.82037224637889       -3.13169395142774       -0.23648509968216
O           -2.91419967553470        0.09349313163480        1.90128223565646
N           -4.87742549494325        0.84532608628364        1.19883200259109
H           -6.64552571817209        0.78710768143576       -2.06026044144644
C           -5.97247387254605        1.12452053011942        0.31142694627426
H           -6.73524639686180        1.56821791476041        0.96824454903188
C           -5.51990559606896        2.20565134776021       -0.68965832095527
C           -6.65726500096622       -0.07331289414448       -0.33473523632119
H           -4.78468083122579        2.82345544760415       -0.17027467586031
H           -4.99159558120529        1.73774212228950       -1.52858075260011
C           -6.65641003489909        3.11441112740840       -1.19003859944681
O           -6.93084437242034       -0.04323571799931       -1.65805980983877
H           -7.56941356491822        2.52497029191442       -1.34235923977688
C           -6.96933286686141        4.19381221180861       -0.15606246992145
C           -6.26903601210394        3.76235558844876       -2.51943228225250
H           -6.11389440876749        4.85334370670435       -0.02907999652789
H           -7.81960025049145        4.79111730942935       -0.47652047978640
H           -7.20537310026670        3.75227130912267        0.80854902445719
H           -6.10285907975765        3.01667293530399       -3.29587458506945
H           -7.05688817050878        4.43058748576461       -2.85804430378349
H           -5.35662394669733        4.34302752455467       -2.40258319418780
N           -7.01918739743060       -1.02154338012191        0.41051206203533
H           -7.11503350318399       -1.69773513753594        2.09809894318765
C           -7.79908182748729       -2.15163765982852       -0.04254365168345
H           -8.79530615837375       -1.79721950272163       -0.34418149848615
C           -7.21741480839482       -2.96667641737806       -1.20027427941627
C           -8.00264580504756       -3.06783122703639        1.17899576318767
H           -6.20515671151788       -3.28686019758680       -0.96888657859154
H           -7.83757955166842       -3.84778536751471       -1.34069060133454
H           -7.20787611056083       -2.38143164828334       -2.11512852860481
O           -7.51818915202551       -2.57214487302049        2.31011308809174
O           -8.55120629685847       -4.13219355651056        1.10728936314348
