42
 energy: -62.486133500613 gnorm: 0.000481197621 xtb: 6.7.1 (edcfbbe)
N           -1.44698047208114       -1.03661149425674       -1.04273021796031
H           -0.79115792339679       -1.80551502150641       -1.10643206095496
H           -0.94083912653362       -0.23185933315885       -0.68225526371567
H           -2.78474706697084       -0.22396891701753       -2.11879168728250
C           -2.55615573620530       -1.36580883169693       -0.14613233025069
H           -2.89603304914475       -2.37755527382231       -0.40402886753721
C           -2.21790440302259       -1.31259191132151        1.34112166186239
C           -3.70356142487419       -0.42557215740482       -0.49017866820709
H           -1.84616128509287       -0.32471285249864        1.60624210191642
H           -3.11589859913017       -1.50588930429357        1.91775514240606
H           -1.46107500717845       -2.05460959358776        1.58700021717855
O           -3.64616616527889        0.06720211295560       -1.75250560518154
N           -4.61451395467303       -0.23313903423314        0.34956442128407
H           -5.86224428957263        0.11531502016740       -2.22197821007797
C           -5.75777763832851        0.63431428408160        0.14022641897317
H           -6.14292466632687        0.80957512349368        1.15088000633745
C           -5.48900078494547        1.98251832900487       -0.53721922448868
C           -6.78601940521216       -0.21207344556520       -0.57793488230183
H           -4.76283061329197        2.52238020148451        0.07542803359249
H           -5.03370927711414        1.83871767309236       -1.51947495541065
C           -6.75613125428729        2.83221284707358       -0.69882968653974
O           -6.65475434167052       -0.34647083758948       -1.91217408447736
H           -7.51375249725146        2.24025971266338       -1.22546980510719
C           -7.33289285880570        3.26039493163114        0.64837447094634
C           -6.43264444207329        4.06381494543921       -1.54424521064116
H           -6.57870908443089        3.77893361455035        1.23697514384846
H           -8.17176763945738        3.93560391040360        0.49646360247636
H           -7.68988320088671        2.40405783479055        1.21392794797623
H           -6.05588867399336        3.77661463727288       -2.52385405017286
H           -7.32273043032619        4.67149809060461       -1.68722829694780
H           -5.67777171763362        4.67278920839788       -1.05087280587072
N           -7.63746056112224       -0.84355660851647        0.10121611943274
H           -8.56143240447722       -1.06821817505459        1.64563143699138
C           -8.57811862659008       -1.75487134377004       -0.51160110340254
H           -9.01334993451833       -1.34095945472757       -1.42982306992013
C           -7.92183794253275       -3.10143758568612       -0.83748786136759
C           -9.70337678369426       -1.99864926657567        0.50473369960583
H           -7.43430679314964       -3.49843002050658        0.05076440186634
H           -8.68327569850274       -3.80056699586558       -1.17144709800558
H           -7.17965351265396       -2.97188198546275       -1.62115527342248
O           -9.43764932529391       -1.51594516835673        1.71214195744150
O          -10.71310265062068       -2.58733365435107        0.23433872431890
