42
 energy: -62.486133509002 gnorm: 0.000480229620 xtb: 6.7.1 (edcfbbe)
N           -2.14134068800909       -1.68599925175415        0.01734507882787
H           -1.55035543277253       -2.42607222126228        0.37460430839598
H           -1.53840479930614       -0.92733401312992       -0.28803356552244
H           -3.65253941809273       -1.55291015470182       -1.13643932694267
C           -3.06632870307325       -1.20696615845654        1.04398417950392
H           -3.49590286184286       -2.09107541420081        1.53185079717143
C           -2.43931744280857       -0.30155987187253        2.10035681693835
C           -4.22113914100186       -0.52157364519473        0.32410809877072
H           -1.98160221994872        0.56518530282790        1.62754371297152
H           -3.21353374854540        0.04668851873064        2.77490233372266
H           -1.68114064991597       -0.84054214312116        2.66441327590671
O           -4.39433622596636       -0.94020973378472       -0.94384799941875
N           -4.91687662943284        0.31769437515525        0.94639713133392
H           -8.42234771402555        1.50688688388114        0.07055692307932
C           -6.06818038323423        0.98486267737845        0.39065625837105
H           -6.41069079779884        1.66636979617377        1.18168417236738
C           -5.66807414591993        1.79630847096185       -0.86380269151970
C           -7.19458368950780        0.02001272064938        0.08998638844173
H           -4.75938855173562        2.34396748635074       -0.60003883249142
H           -5.40998450022153        1.07951618139538       -1.64504186140394
C           -6.69321461525584        2.79060231372677       -1.41919024647440
O           -8.43131897706004        0.55167366418381       -0.06508161121585
H           -7.60519534315816        2.25705199207819       -1.70885745164382
C           -7.03929225378496        3.89002628158829       -0.41489784459360
C           -6.12012613070653        3.42578749669250       -2.68717452932461
H           -6.13851572838912        4.42846095535662       -0.12793089093009
H           -7.73301398342996        4.60026862324757       -0.85987262297397
H           -7.49760067601565        3.49928007227432        0.49194306163656
H           -5.89117261141273        2.66434492951663       -3.42878913263048
H           -6.83460612150199        4.12198304941255       -3.12051848319219
H           -5.20603180580356        3.96999657374113       -2.45976649367929
N           -6.97963011052054       -1.21668385008529        0.08387678971356
H           -5.76825048892910       -2.54293996639615       -0.06517944228317
C           -7.99594148600970       -2.21241732142371       -0.14832107904031
H           -8.81470119333641       -2.12371499188202        0.57611410583005
C           -8.57607627241488       -2.15457690472744       -1.56655277702865
C           -7.31183675116896       -3.57754757690589        0.02731904867530
H           -7.76982400983326       -2.18757877679442       -2.29699937004741
H           -9.23218497160687       -3.00695834361610       -1.72005914973051
H           -9.14025565860379       -1.23561376623728       -1.70107459333506
O           -5.98617668388553       -3.50413425035302        0.00624599317491
O           -7.91552014867110       -4.60840307240332        0.13888545860686
