42
 energy: -62.486133524607 gnorm: 0.000478524103 xtb: 6.7.1 (edcfbbe)
N           -2.12501044924836       -0.50585953056546       -1.68422514253296
H           -2.10684848332467        0.46109532331960       -1.99224804806189
H           -2.05525743715791       -1.09446525152295       -2.50680676772871
H           -1.42928394928328       -0.55235583384740        0.15854239344103
C           -3.36407165001839       -0.79258877681274       -0.95481596747499
H           -4.27456919604690       -0.45456925918679       -1.46145710130534
C           -3.45536281888660       -2.30225943309645       -0.72185763985190
C           -3.22713057150256       -0.11719176183373        0.41030199497272
H           -2.56417503084505       -2.66124162566631       -0.21052700649243
H           -4.32638625944109       -2.52539091438650       -0.11520474703820
H           -3.54707006895791       -2.82354016253291       -1.67252954787207
O           -1.98334288729099       -0.22431859173191        0.89590292570532
N           -4.06217395211665        0.47563270433063        1.14162157033988
H           -7.38931211842764        0.27211146150161        2.18275868088795
C           -5.41924502702110        0.86137183490224        0.89896359878645
H           -5.72740965920739        1.31738175686480        1.85287450062236
C           -5.50786657125635        1.94365493506723       -0.19995577029595
C           -6.41174442107066       -0.23593746030388        0.57502307598203
H           -4.73301510092396        2.68597159597251        0.00069005661813
H           -5.28781098627680        1.46664632046778       -1.15529355344867
C           -6.87416551804664        2.63435921651066       -0.29119110950061
O           -7.48987436090789       -0.32721539501072        1.43262335018336
H           -7.66004047783380        1.87078193681547       -0.31328649846741
C           -7.12143316448642        3.57000042341056        0.89069091487799
C           -6.95545975399391        3.42423165231519       -1.59661830190640
H           -6.36254507131444        4.34882002334934        0.91692569124784
H           -8.09562446478337        4.04389514347154        0.79574362223017
H           -7.09677691660055        3.04190700861438        1.84094366013394
H           -6.85026273980535        2.76237310529791       -2.45264099186189
H           -7.91422705424793        3.93060434191727       -1.67438508212339
H           -6.16668377009412        4.17236746264227       -1.63701718626629
N           -6.25190194170566       -0.97821991607730       -0.41851720985553
H           -8.77165266385214       -0.60019026201183        0.15204589791727
C           -7.12390974775935       -2.03416987642346       -0.86939957102968
H           -6.56889973888554       -2.54673418024411       -1.66385475614535
C           -7.52605052160710       -3.05649789999392        0.20068557083871
C           -8.38946677922340       -1.45849258978753       -1.52555175565688
H           -8.13244228552188       -2.60602060889001        0.98306067507933
H           -8.09141675542729       -3.85950483218379       -0.26580595040289
H           -6.63244532360983       -3.47612154577232        0.65819983561204
O           -9.14799141375319       -0.69173390433321       -0.74332244349425
O           -8.68583434586498       -1.69057469909161       -2.66213929465518
