42
 energy: -62.486133509262 gnorm: 0.000480221763 xtb: 6.7.1 (edcfbbe)
N           -1.03496258384935       -1.04273295183452        0.11577852261662
H           -0.15826302439278       -1.19806385186104       -0.36718197183017
H           -1.24066500667297       -1.88370627084429        0.64871762227060
H           -1.93559855364927        0.25433630431057        1.21322252998562
C           -2.11686944271411       -0.78942094315553       -0.83736119836389
H           -1.74805955208955       -0.05183145305618       -1.56128361879272
C           -2.61650327864292       -2.02371398065233       -1.58372365198756
C           -3.24995134463859       -0.12176440436343       -0.07264973769929
H           -2.91167959541142       -2.79412080409161       -0.87383977984442
H           -3.48771209717288       -1.75290341272558       -2.17010612479765
H           -1.84032066779866       -2.41986911158113       -2.23527981707573
O           -2.88384998055778        0.46025489354683        1.09089492491214
N           -4.40806607827918       -0.13038856318186       -0.55393901878597
H           -7.21103525101406        0.28878891611071        1.81052870261656
C           -5.50101506804288        0.52381167086637        0.11389385106010
H           -5.26433315014554        0.73460219317068        1.17051882995185
C           -5.79208400004049        1.84148751713933       -0.63322519398666
C           -6.71447379790140       -0.36986401723455        0.03870951651629
H           -4.87817787289237        2.43944993822382       -0.62125484264787
H           -6.00475916724471        1.56692407477123       -1.66722503861239
C           -6.94934931977975        2.67051884809184       -0.06669452276908
O           -7.56120842301096       -0.30916455897515        1.13877471932250
H           -7.82820754646970        2.02886356646166        0.05922907512943
C           -6.58924845675008        3.30046615827760        1.27871744787876
C           -7.32012744430424        3.76667490183012       -1.06433790935560
H           -5.74767531516320        3.97940736339090        1.15912163846989
H           -7.43201470782371        3.86672015261580        1.66891175740618
H           -6.31266202283453        2.55398179776235        2.02063384581047
H           -7.63523654742234        3.33097589163707       -2.00898056926880
H           -8.13623467439210        4.37255908829504       -0.67758711626313
H           -6.46715510525140        4.41573703438019       -1.25034920004187
N           -6.91229568757144       -1.08305791518317       -0.96385188246148
H           -9.10667627221942       -0.36758380187575        0.20329643726942
C           -8.00559416860278       -1.98752775039609       -1.20040402896981
H           -7.74298019180550       -2.52527024891210       -2.11874072026260
C           -8.24449987546051       -3.00379679633262       -0.07487522401344
C           -9.32487008707376       -1.25312233675421       -1.48719487891602
H           -8.55355846120771       -2.51445969843974        0.84629501505748
H           -9.01673073260147       -3.70633430575147       -0.37833677871996
H           -7.32375379685618       -3.55027853604645        0.11576744003698
O           -9.73110975609537       -0.40062369181291       -0.54616124909154
O           -9.96662313637564       -1.44798711451820       -2.47949278032870
