42
 energy: -62.486133494374 gnorm: 0.000482531424 xtb: 6.7.1 (edcfbbe)
N           -0.91306902501376       -1.23339701036157        0.35406210480840
H           -0.62618452481183       -0.66507518968511        1.14414075603994
H           -0.07902367271082       -1.51525502549125       -0.14711758834061
H           -2.47738688615605       -2.09866443480941        0.93884332012015
C           -1.82024834974495       -0.49019113809071       -0.52009808863017
H           -1.56540397674649        0.57210983954965       -0.62733850003666
C           -1.85794691791822       -1.13861183996112       -1.90437510999198
C           -3.21465243390753       -0.59058303454615        0.08406538642945
H           -2.11406553318783       -2.19286920859210       -1.81897701022431
H           -2.60392959963841       -0.64203743225572       -2.51748351754918
H           -0.88825119984729       -1.05202788707016       -2.38996849455460
O           -3.36838152759849       -1.68724931387122        0.87685290850302
N           -4.04169219743387        0.30537664904307       -0.17453548604252
H           -5.07811002736782       -1.83869399662621        1.06717485707542
C           -5.43367361434029        0.48160484635623        0.16035944298887
H           -5.46380999748190        0.82383225342718        1.20976178312094
C           -5.95149607736903        1.61461669573212       -0.73815591865508
C           -6.34841325759107       -0.73405930202777        0.12588987409898
H           -5.11299113959965        2.28951238710817       -0.91420636819159
H           -6.23909503364366        1.18230991809271       -1.69623294070646
C           -7.12478927499654        2.40585937680141       -0.14866052461102
O           -6.01204593966381       -1.84604239458456        0.79114580573576
H           -7.84638167865006        1.69967260265188        0.27173476576477
C           -6.65677738810144        3.34810254299511        0.95913919640366
C           -7.81159286966198        3.21163762005818       -1.25005453694944
H           -5.95458259356736        4.07844106367719        0.56228484068157
H           -7.50350601644023        3.88304569757960        1.38307120531155
H           -6.16618390520733        2.80586342110899        1.76389721571713
H           -8.20741545171145        2.55954407604902       -2.02440765213360
H           -8.63559812835546        3.79042763966222       -0.83960231374510
H           -7.10525960316291        3.90078405138088       -1.70836334466423
N           -7.45768619926041       -0.61680647628703       -0.46581360001389
H           -8.49846026248158        0.24710687737208       -1.65311387358339
C           -8.42148674217830       -1.69140450853318       -0.50313994369239
H           -7.94789758128259       -2.66619579498606       -0.67670443880538
C           -9.23623688399441       -1.76294200186489        0.79353491231730
C           -9.38437239700385       -1.38919646969827       -1.66097600505950
H           -9.68496739015494       -0.79401376939106        1.00439069773644
H          -10.02354827485671       -2.50316630055165        0.68290376591787
H           -8.58925741528291       -2.04287514741284        1.62111311535969
O           -9.24784142207906       -0.16254059663636       -2.14991798115285
O          -10.19247884969790       -2.17797519206458       -2.06618755667058
