42
 energy: -62.486133512972 gnorm: 0.000480036992 xtb: 6.7.1 (edcfbbe)
N           -0.91855920640686       -0.61846242362657       -0.09338035433082
H           -0.33126407349330       -0.05625003738131       -0.68819582653869
H           -0.47306718421238       -1.52389485358753       -0.01502324523168
H           -1.58186359394023       -0.10290643456336        1.54697120900406
C           -2.30702498248493       -0.71857647122296       -0.53991373403356
H           -2.45810369701830       -0.03027824544325       -1.39821677126900
C           -2.64376916638733       -2.14855510509432       -0.90225338148731
C           -3.21135122908280       -0.18157137083442        0.59809589446111
H           -2.61831482260735       -2.79296517029351       -0.00947306277912
H           -3.63825503912837       -2.21237962483868       -1.32400164664439
H           -1.91098980901328       -2.46989912415882       -1.63306668314489
O           -2.51778545521915        0.03418091135910        1.73512895212733
N           -4.33170479999104        0.35290994539553        0.65169329796454
H           -4.94745263123790       -0.88606795560577       -1.16118950335762
C           -5.66113385575213        0.66429642134352        0.33237725480509
H           -6.07162677627036        0.95777471854109        1.32483524078593
C           -5.62403680179351        1.88084728283463       -0.60691296498460
C           -6.47791636746673       -0.46109936734362       -0.24430355631813
H           -4.91065562771788        2.61729011604233       -0.21562970247412
H           -5.23114063076605        1.52714099432135       -1.56008138788948
C           -6.94398361663275        2.58126165425989       -0.82199439337665
O           -5.85471129263207       -1.21435734643049       -1.15997598902809
H           -7.69989338636247        1.84260964327117       -1.13179058431373
C           -7.46059457360430        3.27765080026079        0.44287454662867
C           -6.82231378744079        3.60895490231413       -1.94432432664242
H           -6.69616710574381        3.94538861327934        0.83116042531198
H           -8.35729970027727        3.87698282308283        0.24072018916777
H           -7.71962352319633        2.55450123431016        1.20555007377072
H           -6.45821723265955        3.13414499679261       -2.86394599863612
H           -7.77659332327706        4.08512985702205       -2.17334004260515
H           -6.10731922274262        4.39844027271195       -1.67232730330304
N           -7.71975515492288       -0.55615922169189        0.07595401782335
H           -9.22150384901645        0.15247390210571        0.85839877906449
C           -8.54765244526040       -1.62031120109113       -0.40946854574624
H           -8.55317168607664       -1.64822842466888       -1.50640452691562
C           -8.10223374566354       -2.98918255174692        0.11818362222587
C           -9.98565761366702       -1.34503984297706        0.04725257911203
H           -7.95368091558059       -2.93091715385629        1.19196731317604
H           -8.87121091005583       -3.72359851415762       -0.10010192478883
H           -7.17496611960186       -3.29025478438828       -0.35928593798743
O          -10.11775713822847       -0.23377064283760        0.76381080685416
O          -10.89581652099983       -2.07094448982923       -0.23187514705673
