42
 energy: -62.486133503344 gnorm: 0.000481523229 xtb: 6.7.1 (edcfbbe)
N           -1.42185971453019       -0.73828619892955       -1.73780526708412
H           -0.80699124842283       -1.46913175800434       -2.07498095006004
H           -0.85803734576698       -0.08837138214936       -1.19626722122842
H           -2.82228181150408        0.40555679056488       -2.38984034237678
C           -2.48184292498262       -1.29378938602586       -0.89668426738088
H           -2.90895592229305       -2.14997709233181       -1.43404100778527
C           -2.02543828370002       -1.74751829800741        0.48729656987308
C           -3.59641586997047       -0.25332693578452       -0.81483360619292
H           -1.57578064438832       -0.91536175166260        1.02578503350334
H           -2.88583639996431       -2.09389604113482        1.04877767587595
H           -1.29688897885860       -2.55189469106650        0.40457175646833
O           -3.60334176367825        0.61611256472410       -1.83879952068592
N           -4.39246657046043       -0.31845806939264        0.15130197815026
H           -7.53415143402858        0.48731125559080        1.81045079848787
C           -5.54780783529232        0.50260587658889        0.39531413756607
H           -5.46324627887499        0.79394395842970        1.45362874205022
C           -5.72257600922866        1.76212688992282       -0.47632159029740
C           -6.76436980410606       -0.38431640396543        0.24370645018234
H           -4.79440764777803        2.33457671672371       -0.43411072793592
H           -5.86553596655266        1.43146999326496       -1.50516485328465
C           -6.88909512348780        2.67114973727615       -0.07092716449736
O           -7.78481791532053       -0.17679486376038        1.15707070110811
H           -7.80917095169477        2.07970555745845       -0.00682951628139
C           -6.64041125260359        3.36212393759227        1.27005458065299
C           -7.09986814990639        3.72731121059243       -1.15514429160228
H           -5.75210065909222        3.98729861934450        1.20785154565507
H           -7.48541006765238        3.99632364030443        1.52966126658670
H           -6.49338909244711        2.65177479158246        2.08184261301106
H           -7.33337993279720        3.25601575882173       -2.10633020018209
H           -7.92193355803307        4.38808951176593       -0.88918469451426
H           -6.20137957949238        4.32775094713364       -1.27981128157869
N           -6.80232520999808       -1.22548589785263       -0.67761323322526
H           -9.14925325315876       -0.35416272660261       -0.02161119725374
C           -7.86185268911060       -2.15367100740884       -0.97444648245729
H           -7.45704799487489       -2.81556259578365       -1.74881962341077
C           -8.31692690034467       -3.00059270329180        0.22190478851073
C           -9.08988608916788       -1.46359209872681       -1.58836742684409
H           -8.78537214432846       -2.38931834986090        0.99019051121917
H           -9.02808222930452       -3.75067979370934       -0.11526043211530
H           -7.45339940306098       -3.49947205189778        0.65600566070807
O           -9.63308742443933       -0.48955572993039       -0.85827355052140
O           -9.54976919355366       -1.79005753132479       -2.64501111761956
