42
 energy: -62.486133509501 gnorm: 0.000480900648 xtb: 6.7.1 (edcfbbe)
N           -1.24907130518140       -0.60657821080010        0.38504267293674
H           -0.54419111381098       -1.27007788018698        0.08843451633902
H           -1.09012115177299       -0.41230857408527        1.36998567944648
H           -2.00320840697774        1.02963724509593       -0.16730475580974
C           -2.59489431649820       -1.15435599267751        0.20132341416030
H           -2.62134508654513       -1.64069897928768       -0.78142758092377
C           -3.01654677322843       -2.15882119295709        1.27039890817955
C           -3.55928735215600        0.02536762197261        0.12415275954257
H           -2.98863821321732       -1.69212308423680        2.25315665267245
H           -4.02923082112282       -2.49467061491889        1.07861096216137
H           -2.34752110454849       -3.01707170574888        1.26703455033631
O           -2.96746301573042        1.20829934982865       -0.13687791707719
N           -4.78252308837486       -0.18341784703928        0.30282012409864
H           -8.03362977086152        1.67675498975089        0.85064377261732
C           -5.81672531605900        0.81787149719004        0.21037616084451
H           -5.74484739726522        1.50318508314495        1.06747504379029
C           -5.73119868576393        1.61891173775554       -1.11010336869963
C           -7.13269399563573        0.07360916796070        0.26852559439664
H           -4.74074408029098        2.07209136493524       -1.15680656870144
H           -5.80820238134254        0.89301241296210       -1.92319906950302
C           -6.77667973993576        2.71998590712771       -1.31699171455296
O           -8.24355621640451        0.76178457693605        0.62745847051130
H           -7.78338215699635        2.29256230575380       -1.25562873030267
C           -6.63416797679581        3.84333222736665       -0.28983276094560
C           -6.61028629980422        3.29715277280741       -2.72317701116535
H           -5.64433345330349        4.28911031487448       -0.36253176429167
H           -7.37302986690962        4.62008641287344       -0.47537709006519
H           -6.76740682308387        3.49305773314152        0.73255563972624
H           -6.73849410842883        2.52161158063202       -3.47444781308213
H           -7.34783353371564        4.07542915019720       -2.90532821085191
H           -5.61879366733572        3.72896652652616       -2.84090822114923
N           -7.13952771218267       -1.15663642537998        0.02653257185487
H           -6.13662648675920       -2.59107997535968       -0.05586844269947
C           -8.30447354132465       -1.99787490082368        0.08641613147981
H           -8.91994584823238       -1.79132721526702        0.97190128475443
C           -9.17760021129572       -1.86335338521779       -1.16488848707429
C           -7.77649596193015       -3.44279312333512        0.17456907385306
H           -8.57145094420439       -2.00986642009651       -2.05651069819333
H           -9.95956119869542       -2.61703068930262       -1.13832787912990
H           -9.62817137016464       -0.87449283349965       -1.19984898753425
O           -6.46006434267222       -3.52600677390672        0.04436445044226
O           -8.49222641533562       -4.39325984100763        0.33254349580168
