42
 energy: -62.486133511268 gnorm: 0.000480144576 xtb: 6.7.1 (edcfbbe)
N           -2.52895273820887       -2.13220148362183        1.53795378619767
H           -1.56855948248608       -2.35248500124662        1.76811961326450
H           -2.87168808152862       -2.85694068788695        0.91281746454641
H           -4.19043488257387       -1.74056423935445        2.29561538881777
C           -2.63343398810375       -0.82518123128038        0.89438541173991
H           -2.03868220870443       -0.11694573761021        1.48372270507406
C           -2.16244204121380       -0.79432922144400       -0.55877440812688
C           -4.09495645002516       -0.38848142866514        0.99568443754591
H           -2.72648035206302       -1.51470749623651       -1.14837171634537
H           -2.33282085997968        0.19480045943784       -0.96966523731815
H           -1.10334313717967       -1.03599130283283       -0.62280707308837
O           -4.80320868477365       -1.07423594955287        1.91089054309521
N           -4.46397069486340        0.60552504897132        0.32813299412126
H           -8.12017504918318        1.72986117940572        0.25401725339521
C           -5.78847251049539        1.13134775252489        0.13736665502014
H           -5.94434996391332        1.91556907202090        0.89426357646048
C           -5.72342042890651        1.77842147518285       -1.27103357877635
C           -6.96402132287446        0.18255587218303        0.21662184149989
H           -4.75485674805768        2.27885271793761       -1.31759464054025
H           -5.70227660052440        0.96242901106497       -1.99640455144547
C           -6.81117419393930        2.78012016411716       -1.67383488415335
O           -8.18941200451652        0.76827840429802        0.22993177608447
H           -7.78783168603569        2.28423542245546       -1.69964621648417
C           -6.87107282594138        3.98143313000615       -0.73012864578809
C           -6.51855162906970        3.26797897537010       -3.09382557151617
H           -5.90116903594038        4.47267651907555       -0.69187014661660
H           -7.60455080541203        4.70188234963868       -1.08596311135613
H           -7.14574346483964        3.70381300091991        0.28639560989569
H           -6.48506584632511        2.43185406189410       -3.78795177797012
H           -7.29086292852356        3.95770841926552       -3.42627932021921
H           -5.56066115325586        3.78194952006441       -3.12905635243645
N           -6.82397856777380       -1.06129333601087        0.32074361386774
H           -5.80761885926244       -2.45477623492431        0.92209455757658
C           -7.95600758768861       -1.95883887334524        0.35801718635219
H           -8.67234199860738       -1.66034007820147        1.13589421442830
C           -8.69040268854035       -2.03153672575606       -0.98413849067252
C           -7.42602477571048       -3.35749654665193        0.71106108376912
H           -7.97914490163715       -2.23463921851760       -1.78246125824262
H           -9.41827213807753       -2.83706380903611       -0.94467630360571
H           -9.19759631636349       -1.09266121203120       -1.18867206407269
O           -6.12566720692216       -3.39041675903020        0.96839850694300
O           -8.12649440038060       -4.33219209326062        0.73996180366474
