42
 energy: -62.486133515130 gnorm: 0.000479754386 xtb: 6.7.1 (edcfbbe)
N           -1.95963133003266       -2.32436483389782        0.16693918738497
H           -1.22466862253658       -2.35428607550697        0.86093150457146
H           -1.69428678169321       -2.92319292266870       -0.60513572152483
H           -3.71959236069467       -2.37771439552973        0.68363666248154
C           -2.23233198132870       -0.95903090911048       -0.29318023771653
H           -1.55883553189715       -0.23493714829238        0.17724595273893
C           -2.11994763906267       -0.82717125537125       -1.81043415610273
C           -3.66141076939882       -0.60483002287799        0.12335936764376
H           -2.79495166351850       -1.52853331751488       -2.29689756554919
H           -2.40032856897516        0.18002128465039       -2.10141358574847
H           -1.10088411618026       -1.02532483719432       -2.13811926535840
O           -4.34950985195283       -1.61833522003076        0.66943078204188
N           -4.05097813521997        0.57477264672859       -0.05141177494631
H           -6.21884975504465        0.36094787052155        2.37892957493999
C           -5.39226392764065        1.05456820695054        0.18170677142639
H           -5.32495145259067        1.73943519811166        1.04049841699526
C           -5.80432567728041        1.85383579994616       -1.06395572549739
C           -6.41926361219929       -0.01591499787112        0.47769393555190
H           -4.98935011211170        2.53823694592518       -1.30241469449510
H           -5.90670526936894        1.13699961869236       -1.87825128532330
C           -7.11470375034659        2.63065898495398       -0.90592803749322
O           -6.79646144632478       -0.15109983410206        1.80097949631324
H           -7.88638231931628        1.94577337142359       -0.53833975779675
C           -6.97691649285767        3.79353064839985        0.07491056436289
C           -7.55668480968329        3.15522821151706       -2.27057882148236
H           -6.18731336504888        4.46884081998834       -0.24831610946920
H           -7.90791505942239        4.35343869212683        0.12503288379184
H           -6.74341654480151        3.44780353855138        1.07911355587663
H           -7.70479702978473        2.33189146784757       -2.96429765486334
H           -8.49254857123202        3.70210758285043       -2.18411926390050
H           -6.80328356664274        3.82401968548651       -2.68175200737311
N           -6.87601746793178       -0.70223838820203       -0.46220748317722
H           -8.56578924939902       -0.38222338947677        1.45315277073445
C           -7.83872597631228       -1.76871145152166       -0.37548386972459
H           -7.84963409468722       -2.22909433249956       -1.37046579008017
C           -7.52068047274797       -2.84404350944638        0.67240775453928
C           -9.25742502885070       -1.24018727257812       -0.12083150679923
H           -7.60110403749794       -2.45290664555635        1.68403518118246
H           -8.21121675494690       -3.67594710207074        0.55756437088937
H           -6.50352723690409       -3.19665639016868        0.52238934110969
O           -9.40653652418526       -0.48667158648555        0.96940840901474
O          -10.18204426639710       -1.50072013068509       -0.83689704997560
