42
 energy: -62.486133511431 gnorm: 0.000480094438 xtb: 6.7.1 (edcfbbe)
N           -1.74882883490483       -2.27608083836616       -0.62315316239518
H           -1.76045134697233       -2.80948733933915        0.23958327141774
H           -0.84416174421610       -2.40738296370350       -1.05849820835591
H           -3.59781925540416       -2.30533807559273       -1.20228684323616
C           -2.00572441480222       -0.85972499100461       -0.37151753720178
H           -1.53529709061975       -0.47739899184692        0.54508674327029
C           -1.52902262757253       -0.02459188133568       -1.55988935354976
C           -3.51234783687754       -0.68964626519329       -0.24927312654224
H           -1.99245716839704       -0.38119095706704       -2.47696363058126
H           -1.80421038550957        1.01402289332312       -1.40485294775671
H           -0.44807086275959       -0.09308687720099       -1.66217447476843
O           -4.23346879525973       -1.64103715039771       -0.86484375209513
N           -3.96259697303406        0.32411833248378        0.34478652983374
H           -4.99204842249257       -1.42681243068514        1.67895397220822
C           -5.37776940883667        0.61340954451598        0.46333272380947
H           -5.48382314475756        1.11532486005089        1.43652331512450
C           -5.77834529919370        1.59097259999414       -0.65198032168503
C           -6.26516895582758       -0.61283779180172        0.50127661294190
H           -4.92869563330713        2.25353819895348       -0.83007674895224
H           -5.94907533515456        1.00797445082385       -1.55793879805890
C           -7.01718932837316        2.43379275754823       -0.32773884592783
O           -5.87376425939072       -1.60858609129638        1.32964228622933
H           -7.76440523541306        1.78585277048962        0.13846621229315
C           -6.67604364757264        3.56711818965134        0.63771137775595
C           -7.60267858233370        3.01104248906361       -1.61532880113347
H           -5.96229278171026        4.25036340753773        0.18178590550137
H           -7.57175397399769        4.12872177791647        0.89262655814147
H           -6.24258649287611        3.18643026347019        1.55908598033135
H           -7.90243307103385        2.21996484075924       -2.29813238910688
H           -8.47683043529361        3.61888875877021       -1.39472751515133
H           -6.86795137617367        3.63855709634131       -2.11593967719882
N           -7.37395088462026       -0.61688189674783       -0.09140093709827
H           -8.36286742018629       -0.00491498592178       -1.47052624674910
C           -8.27765476820937       -1.74132782624639       -0.02252920996577
H           -7.74358082038307       -2.69937058797423       -0.04877436195177
C           -9.14222672693452       -1.68954781977367        1.24161859147561
C           -9.20027577323799       -1.65395099531469       -1.24784715997565
H           -9.64739861829887       -0.72790459000718        1.30765589781429
H           -9.88625347027074       -2.47991157450354        1.19917008622337
H           -8.51954473087960       -1.82478207512274        2.12247158600896
O           -9.07406624822458       -0.51855472539851       -1.92383194722244
O           -9.97106068538684       -2.52202787474998       -1.55066627038629
