42
 energy: -62.486132295192 gnorm: 0.000621555109 xtb: 6.7.1 (edcfbbe)
N           -2.09236203446564       -0.93520127697600       -2.33456629717066
H           -1.46972549039500       -1.64122077501462       -2.70678753880049
H           -1.57547690069976       -0.06177539125536       -2.28689582692045
H           -3.86500648331808       -0.28998537593738       -2.61734776865193
C           -2.57426332372390       -1.30172740480325       -1.00506586203113
H           -2.86956265481348       -2.35766913961241       -1.04234422142112
C           -1.55866000314464       -1.10074322963362        0.11730430769054
C           -3.85054858628833       -0.50497590102022       -0.75387369236140
H           -1.24358545700276       -0.05966962924260        0.15404557309789
H           -2.01690629041813       -1.35259154841550        1.06753955349188
H           -0.68546755302780       -1.73033975209021       -0.04182694054267
O           -4.44181302046799       -0.04128957661861       -1.86386359266561
N           -4.27443373110030       -0.39931288352201        0.42618467004151
H           -6.17096188766950       -1.44434634550424        2.30528901720222
C           -5.48881666412300        0.31685001462024        0.78114888520425
H           -5.38039447281218        0.52276679465070        1.85628928803196
C           -5.75691406399791        1.62855688170654        0.04249025315484
C           -6.59173817381376       -0.70084987957396        0.58925917885148
H           -4.84251116960276        2.22561453322258        0.05766913090804
H           -6.00083947308935        1.39844190433065       -0.99244386016766
C           -6.90915232995407        2.42770161812298        0.66219888421801
O           -6.81028726544893       -1.57594762175586        1.59437472847247
H           -7.73616298771879        1.73801943512857        0.86309931873448
C           -6.49787441107958        3.10367356109532        1.96866483114372
C           -7.39223541525022        3.48017393212445       -0.33388121736728
H           -5.67144480414671        3.78943908693040        1.79393153797095
H           -7.33061366754647        3.67052704536467        2.37866132257225
H           -6.18739662648789        2.37758101347366        2.71578257528305
H           -7.74580324460671        3.00829398303193       -1.24708929143762
H           -8.20729346469314        4.06241583837913        0.08978860464840
H           -6.58168722146547        4.15976645991421       -0.58860017171739
N           -7.18273817041363       -0.74735632490527       -0.51906629419034
H           -6.71915732313375       -0.65443740903421       -2.29624746038775
C           -8.14897036073873       -1.75787694594829       -0.86215790554941
H           -7.98519700937538       -2.70023207837563       -0.32111042095639
C           -9.57387468690628       -1.26750639296547       -0.58961212625256
C           -7.99582506824085       -2.03278674745150       -2.36738227332655
H           -9.72654621185900       -0.29772600675018       -1.05858525965344
H          -10.28234409373172       -1.98033498062955       -1.00189105050686
H           -9.73612443963684       -1.17277406433253        0.48151387465910
O           -7.11020655528209       -1.25409623464614       -2.97562811297611
O           -8.62526845150830       -2.87907495971860       -2.94003310362328
