42
 energy: -62.486133523379 gnorm: 0.000478657536 xtb: 6.7.1 (edcfbbe)
N           -2.04689476974086       -1.42605275807655        1.44296253973498
H           -1.09651356664512       -1.77261101907146        1.39100350294195
H           -2.62731328607227       -2.17865840343044        1.80491054381377
H           -3.08610107565828        0.04687679759073        2.09324997998895
C           -2.53085857911304       -1.02106439218563        0.12386918333866
H           -1.75121067558732       -0.39837634510357       -0.33386873764663
C           -2.86796600524008       -2.17862419582741       -0.81408568271675
C           -3.74136553628283       -0.12521113942258        0.34642103868915
H           -3.62687641150082       -2.81441351776536       -0.36208961171385
H           -3.26284674333169       -1.78493822380426       -1.74437089684233
H           -1.98083936171724       -2.77465626352613       -1.01950941036603
O           -3.82657992340953        0.41748477405347        1.57147849999929
N           -4.55731496938386        0.05712532346410       -0.59294064316657
H           -7.07230941047606        0.52544199280138       -2.44160946560410
C           -5.72356401274615        0.90253426936855       -0.40385979294003
H           -5.78025029302251        1.26683940746165        0.62924855905939
C           -5.65113677050323        2.08420118133545       -1.37417338501144
C           -6.89468721386713       -0.03535730765616       -0.62301965332564
H           -4.74241776116605        2.64194802779158       -1.13662860533905
H           -5.51961696870140        1.70699758917794       -2.39404591561256
C           -6.85389319226872        3.03548141772292       -1.30211698406253
O           -7.49114804457182       -0.08974328218314       -1.82604415917668
H           -7.78425142032778        2.46030789853258       -1.37411774862607
C           -6.87567232356554        3.80327483316287        0.01788566120687
C           -6.80052071846243        4.01535860668131       -2.47412838678432
H           -5.95375301328584        4.36703941028163        0.14440304323400
H           -7.70926031843283        4.50165958000242        0.03127977648332
H           -6.98743322379083        3.12869648015405        0.86249073678083
H           -6.82661091585449        3.49093883412689       -3.42740762655910
H           -7.64681447702721        4.69689844991857       -2.43842704717063
H           -5.88611833885089        4.60317219834096       -2.43218759309809
N           -7.19434243998018       -0.80226970299004        0.33043222553523
H           -6.98948635107965       -1.24828911171247        2.04963486948427
C           -8.21255271355263       -1.82192044864642        0.23578082727647
H           -9.16400574596124       -1.40974362484404       -0.12340790460283
C           -7.79958493772295       -2.98020847026563       -0.67916647792263
C           -8.42036666766571       -2.37326287710285        1.65624818835216
H           -6.82372784223483       -3.35706717088119       -0.37918591974370
H           -8.53161108494619       -3.77859322717993       -0.59548546033671
H           -7.74578839476491       -2.64176178059138       -1.71017471084613
O           -7.55084730748210       -1.89834898639937        2.53927919596221
O           -9.27173845038834       -3.17313062920332        1.93040858662990
