42
 energy: -62.486133523435 gnorm: 0.000477800110 xtb: 6.7.1 (edcfbbe)
N           -1.90895663771400       -0.94892819704261       -2.06780891699331
H           -1.26295572690760       -1.66942767938533       -2.36648782359139
H           -1.36687200727007       -0.11171106270577       -1.87197688906751
H           -3.61365611373676       -0.18273342024734       -2.57981505743568
C           -2.63454051134465       -1.36205324529228       -0.86740669636001
H           -3.01204128538187       -2.37619188197004       -1.04891496047196
C           -1.80280318967658       -1.35662583868265        0.41288419929712
C           -3.86697168195521       -0.47322550142360       -0.74509993624929
H           -1.39601434773283       -0.36325521751189        0.59076927464654
H           -2.43814023052707       -1.62040621012377        1.25061343852743
H           -0.98231388955301       -2.06793778428473        0.33930810485147
O           -4.25169754570943        0.09770126503111       -1.89347163677651
N           -4.41670980688210       -0.36472886127421        0.38095224902985
H           -7.89314482476169        0.40947877777994        1.49193643251376
C           -5.63968821490539        0.36405260525198        0.60404997959672
H           -5.71809195803908        0.44432792608651        1.69867041415719
C           -5.65107328352106        1.77728378186042       -0.01814972779344
C           -6.81576750528319       -0.44566424981154        0.10904481797519
H           -4.69342711749765        2.24121130935253        0.23118046161646
H           -5.69474897989500        1.66139765165529       -1.10109416444873
C           -6.78402177191605        2.70693665147584        0.43097205280246
O           -8.01584354740951       -0.20654706366615        0.75948487818076
H           -7.75071468720744        2.23072390401495        0.23254553647473
C           -6.69049418198922        3.06507977286951        1.91434502893154
C           -6.73089690648918        3.98642359012477       -0.40442867855133
H           -5.74764859842331        3.56846746703242        2.11720508380616
H           -7.50104032470127        3.73611870086019        2.19104865337719
H           -6.74637402084142        2.18932453824993        2.55858726487922
H           -6.84259363464729        3.75756437828492       -1.46125100213390
H           -7.52995221698119        4.66487209413731       -0.11418680823151
H           -5.77970712829036        4.49441301552119       -0.26079394440478
N           -6.66973598314988       -1.26342894782124       -0.82201563645033
H           -9.03533615736601       -0.24874818391178       -0.74576984401622
C           -7.66792541035916       -2.11679065209273       -1.40839429202762
H           -7.11823285308720       -2.78618930830371       -2.08038144775720
C           -8.46046260921331       -2.95906413531119       -0.39890832530481
C           -8.65988880850230       -1.33588212106156       -2.28389410681797
H           -9.07192578145281       -2.33541524090962        0.24957458258779
H           -9.10564761658511       -3.65142165024702       -0.93412759286364
H           -7.76737636738042       -3.52545142884876        0.21918060780703
O           -9.30612487302702       -0.33971162464323       -1.67867012506523
O           -8.86463293194833       -1.61586393523402       -3.43037029202700
