42
 energy: -62.486133512971 gnorm: 0.000479915726 xtb: 6.7.1 (edcfbbe)
N           -1.74479185586959       -1.34315228331989       -0.76843342222156
H           -1.50013079587735       -0.82991198163616       -1.60871169660558
H           -1.58801125838782       -2.32858748473451       -0.94376195839864
H           -1.35091414199258       -0.15994964154469        0.62195353320362
C           -3.13412251953812       -1.09513930305021       -0.38097671358141
H           -3.80654909111132       -1.06114690826110       -1.24649537222925
C           -3.60064954315575       -2.19400907832033        0.57630336759380
C           -3.16584024356963        0.22623706696632        0.41365539219372
H           -2.91330383257704       -2.26610093978772        1.41682885608090
H           -4.59138948221143       -1.96091222283020        0.95728325150526
H           -3.63723472946311       -3.15562205780759        0.06696535765318
O           -1.97666529553687        0.52333751701515        0.94815029468061
N           -4.13392498548159        0.95131933941183        0.74907035278471
H           -5.37763943649757        0.27482623072243       -2.02568253053819
C           -5.47616580832727        1.10959823048202        0.28548081429550
H           -6.04133715953913        1.36341209845128        1.19030976934323
C           -5.50046078007307        2.32683017006874       -0.66073790153045
C           -6.20024129877384       -0.07258427533900       -0.32956033743797
H           -5.06671193750276        3.16158736277501       -0.10896749935954
H           -4.83720271868505        2.13996112229637       -1.51373740850167
C           -6.89623015662799        2.71400662850440       -1.16521559578230
O           -5.92493954151645       -0.40743625554616       -1.61461833473300
H           -7.33516978179238        1.87095336997247       -1.71200270102937
C           -7.83225108569651        3.07182820453332       -0.01361244971060
C           -6.77044012550319        3.89478359159833       -2.12759287996303
H           -7.38236145181417        3.83362038402409        0.61867984514311
H           -8.77037101612002        3.45917072941728       -0.40380508554882
H           -8.05645519982115        2.19920290530875        0.59379576434962
H           -6.11961267166402        3.65071713261189       -2.96505492947143
H           -7.74563613338430        4.16708295566811       -2.52324175131945
H           -6.35593002424889        4.75800719536032       -1.61198916474675
N           -7.10849136999255       -0.63855079099023        0.33421430460820
H           -8.23967501813757       -0.66762334145722        1.78197593904137
C           -7.91364587968403       -1.70096012826232       -0.22480852011640
H           -8.22844706163633       -1.46695862607793       -1.25035810915058
C           -7.18308573482099       -3.04788857941971       -0.23511525132378
C           -9.16479589801186       -1.83802796484335        0.65606284952262
H           -6.82820352108696       -3.28892316610268        0.76500477362617
H           -7.87117919301194       -3.82200555109885       -0.56273721685790
H           -6.33675379881173       -3.00598895404931       -0.91592076085181
O           -9.09584291995139       -1.15228933283700        1.79048435501235
O          -10.10315655420331       -2.51889664830134        0.35042914889391
