42
 energy: -62.486133516609 gnorm: 0.000479423015 xtb: 6.7.1 (edcfbbe)
N           -2.19129079672227       -2.49071558421281       -0.59795472245646
H           -1.23308182748664       -2.80511057161769       -0.69442170701741
H           -2.67816650729992       -2.72122115200742       -1.46022087736969
H           -3.69374741668330       -2.52895363838755        0.59790888256596
C           -2.24564323865714       -1.04587302137122       -0.37942267259860
H           -1.56348558028370       -0.81929130234557        0.45078535231346
C           -1.86154838778129       -0.20338748320663       -1.59267849517132
C           -3.65924309697656       -0.72367390496891        0.09965846729338
H           -2.51801427511440       -0.43416295907997       -2.42856605401867
H           -1.97559826219212        0.84722061570919       -1.35058448329101
H           -0.83090206567633       -0.39970030556230       -1.88271237023255
O           -4.26455180147298       -1.74446854460933        0.72833742132239
N           -4.08179782129042        0.44839528152352       -0.04423047323650
H           -7.05614325748326        1.03673544632976        2.02728998852809
C           -5.39692028798572        0.95089125173642        0.23852789762352
H           -5.29037731887123        1.61390250716212        1.11057898293921
C           -5.80474376523506        1.79427564539633       -0.98869325943918
C           -6.49070780496915       -0.05574415496222        0.50832023651235
H           -4.97049594845945        2.45641851956202       -1.22308996898032
H           -5.92825929904776        1.09700119356556       -1.81833123484239
C           -7.08812909719393        2.61210560282967       -0.81216978807610
O           -7.34105198121559        0.24083918362761        1.56307861637517
H           -7.88331202226554        1.95889406373565       -0.43567883652748
C           -6.89330504487759        3.77377676583137        0.16120528963736
C           -7.53491519088174        3.15054901262670       -2.17019515892262
H           -6.12458763269055        4.44785439359619       -0.21045322587395
H           -7.81873559761343        4.33530867249762        0.26767080686900
H           -6.59330778602834        3.43305949684664        1.15001441792815
H           -7.73885583759583        2.33267966234155       -2.85645275680990
H           -8.44106780609674        3.74258389065627       -2.06549267837581
H           -6.75986351437448        3.77975155477120       -2.60243065394845
N           -6.59635599267096       -1.06556852585271       -0.21806803454157
H           -8.86630789889695       -0.29919769571002        0.75765593728657
C           -7.56122875951600       -2.12726065294887       -0.10542006801071
H           -7.22718568900188       -2.89702871112394       -0.81089243955020
C           -7.66271324464929       -2.74251893293679        1.29664030391864
C           -8.95965271547039       -1.68975091289600       -0.56355785066718
H           -8.09197356673695       -2.04335298512936        2.01103131215970
H           -8.28385607273740       -3.63397640372613        1.25785854960364
H           -6.66539322228472       -3.01278343542051        1.63552295873767
O           -9.47680530505412       -0.64050515125441        0.07625663164355
O           -9.56286852657619       -2.26002222031908       -1.42768912388055
