42
 energy: -62.486132344432 gnorm: 0.000611659092 xtb: 6.7.1 (edcfbbe)
N           -1.82204561912225       -1.38892012248966       -0.79612031799479
H           -1.59100945442968       -0.85600428174256       -1.62804429330498
H           -1.68824378696868       -2.37140340554565       -1.00442435275456
H           -1.38033700331322       -0.23030662126899        0.61832968540350
C           -3.19641214568199       -1.12799055125865       -0.36608228774620
H           -3.89740324234954       -1.09042739074573       -1.20860119552863
C           -3.63848332100180       -2.21963239380050        0.61066365521935
C           -3.18890205297831        0.19628792294774        0.41963043790694
H           -2.92374038378051       -2.29427808949787        1.42745415524282
H           -4.61417720185464       -1.97703291131608        1.02239624717383
H           -3.69812572429380       -3.18252900294310        0.10617656898281
O           -1.99055555688801        0.46315969412556        0.95062069899004
N           -4.13035627744847        0.96485307042596        0.73437037992206
H           -5.43081623597578        0.38228928364459       -2.07169295809792
C           -5.47431935204439        1.12543351231563        0.27507070232703
H           -6.03974115501839        1.35613273968934        1.18628111309197
C           -5.50100108847780        2.36584001018586       -0.64036663818765
C           -6.19490047795590       -0.04570323692755       -0.36511890606938
H           -5.07138758934759        3.18749749220708       -0.06621403825127
H           -4.83331008098873        2.20279979359060       -1.49478627803229
C           -6.89587586622468        2.76298239274864       -1.13990655022956
O           -5.96049320744677       -0.32048237824344       -1.67224295099402
H           -7.33585083339486        1.93205273953968       -1.70405100078043
C           -7.83386109505948        3.09909390070455        0.01654945479703
C           -6.76693364883577        3.96228142359089       -2.07871242520511
H           -7.38942565074028        3.85622409260176        0.65815743625119
H           -8.77504344329801        3.48413398499474       -0.36848428420504
H           -8.05147957810897        2.21753121465409        0.61343600676140
H           -6.11139218694026        3.73535925326139       -2.91733798420266
H           -7.74037404934498        4.24102688530339       -2.47416239888741
H           -6.35614333758192        4.81573246215713       -1.54433161153560
N           -7.04705415751212       -0.67613870799053        0.31485419820156
H           -8.15033011757340       -0.75866137415336        1.78647878698607
C           -7.85614375371519       -1.72830032793966       -0.25761692768682
H           -8.17964324631372       -1.47827915179339       -1.27652274181276
C           -7.12653795864675       -3.07507919271828       -0.29370326069625
C           -9.09916469976256       -1.88221890133365        0.63234064633128
H           -6.76971871351788       -3.33503219167611        0.70084592041655
H           -7.81627400201812       -3.84227861066596       -0.63413946113877
H           -6.28172855839402       -3.02178654981314       -0.97569247315027
O           -9.00900911426319       -1.23844806621824        1.78981184437808
O          -10.04844400196756       -2.54147588310409        0.31407898446089
