42
 energy: -62.486133517520 gnorm: 0.000478629781 xtb: 6.7.1 (edcfbbe)
N           -0.84333449603294       -0.87780335376210        0.21909660838276
H            0.07668746256029       -0.89749987555426       -0.20377555023881
H           -1.02548716466501       -1.80606046453937        0.59161009239134
H           -1.88673699285734        0.24248984609621        1.40537102012302
C           -1.86486265838689       -0.53086645771662       -0.76923789538465
H           -1.49699716217819        0.34249790110661       -1.32340859902892
C           -2.21094111073048       -1.64213045953002       -1.75684134390302
C           -3.09251866484470       -0.06309410418629       -0.00287453769408
H           -2.53604045010685       -2.53311344476425       -1.22306789301980
H           -3.02315210084477       -1.31234626503245       -2.39556969617136
H           -1.34617724822482       -1.89169754779100       -2.36808381736358
O           -2.84276933333958        0.37638814640851        1.24932772244227
N           -4.22223545010599       -0.10439992679404       -0.55036789478559
H           -5.16757389635388       -1.63728406653965        1.29677335250439
C           -5.40664090794613        0.41545619420538        0.10456598386917
H           -5.19866733491132        0.72288794816273        1.14215765419174
C           -5.91414901427685        1.60980501995970       -0.70951278774823
C           -6.39351884154957       -0.72991777356266        0.13638905446196
H           -5.08190633835190        2.30470400926431       -0.84081511423314
H           -6.19523271260082        1.23495246287299       -1.69340409538131
C           -7.09490236351699        2.34600948505952       -0.06693283960753
O           -6.04465117459193       -1.77717178873259        0.91809869107269
H           -7.80959881896440        1.60373988092681        0.29939633912317
C           -6.63829963951290        3.21128365562657        1.10624507115009
C           -7.79008327165976        3.21547554263091       -1.11312950856779
H           -5.94186647898914        3.97467551259309        0.76488194195189
H           -7.49079439334662        3.70746416330432        1.56434947276042
H           -6.14533165588533        2.61564998607160        1.87041814687781
H           -8.17770482536738        2.60851331849108       -1.92749426126149
H           -8.62053180123398        3.75652006882276       -0.66579877228807
H           -7.09232987202898        3.94114086423539       -1.52591259708065
N           -7.44538390120821       -0.70193935546208       -0.54863211192840
H           -8.40119435146227        0.06400337476478       -1.86605110531913
C           -8.39342639378242       -1.79014481005643       -0.57133649347025
H           -7.89727477515750       -2.76348283974965       -0.67207994869167
C           -9.26921522319172       -1.80923005541394        0.68649831421813
C           -9.30232051435393       -1.56389317711207       -1.79072954253308
H           -9.74192668427746       -0.83878355534331        0.82542539157528
H          -10.03998575303329       -2.56646355021827        0.57432675049357
H           -8.66188091942066       -2.03701218905500        1.55886406069333
O           -9.13321465472242       -0.37763584533234       -2.36039703612793
O          -10.10201938074576       -2.37371230393066       -2.16940716927727
