42
 energy: -62.486133515146 gnorm: 0.000479227183 xtb: 6.7.1 (edcfbbe)
N           -1.31015192402586       -1.22553565799443        0.48777919960314
H           -0.76321786983991       -0.37767978599405        0.59718377328924
H           -0.67021283800052       -1.98269546526060        0.27822829383562
H           -2.82653756888263       -0.95216092161227        1.64248400683839
C           -2.29569365435615       -1.06978356971307       -0.58246891858932
H           -1.92583541380645       -0.51549760916587       -1.45485364618972
C           -2.79520212437206       -2.44249645900611       -1.03584573315117
C           -3.47309253016510       -0.31501334686973        0.00005253951912
H           -3.16617899645321       -3.00700030429504       -0.18250351971628
H           -3.59982996733778       -2.31368954534660       -1.75366117854079
H           -1.98942219405161       -3.00409772293570       -1.50355679091852
O           -3.62504226348234       -0.47037858423340        1.34077404314814
N           -4.22546651492827        0.35765938456803       -0.74416262696801
H           -5.64676381975046       -0.23904865871478        1.86975700088677
C           -5.39809247651200        1.01837499823394       -0.19821671803813
H           -5.14019333131381        1.53702202676351        0.73725908149587
C           -5.90935956924699        2.00854532662395       -1.24490832055304
C           -6.42518508693183       -0.05025191729017        0.10229886814223
H           -5.10149337350225        2.70578893314837       -1.47266958102613
H           -6.12672671550726        1.42900576854452       -2.14083623382352
C           -7.16208602353647        2.78127405904665       -0.82301992418765
O           -6.46196593370409       -0.48863934992532        1.41003588250482
H           -7.94173340741822        2.05975360682790       -0.55852467990868
C           -6.90211799226445        3.68910392324874        0.37794958337943
C           -7.66060758947749        3.61242637722698       -2.00340787879490
H           -6.07573141300468        4.36638301264337        0.17063875372914
H           -7.78603957863294        4.28449257486706        0.59482260999893
H           -6.66388391656831        3.11426881333332        1.26957449201894
H           -7.87683310509011        2.97183550146103       -2.85413027878718
H           -8.56928350857905        4.14708394609768       -1.73723830481046
H           -6.90777489058887        4.33978987445815       -2.30049307239968
N           -7.11105083763280       -0.52731655737887       -0.82740001446212
H           -8.25858981355310       -0.66323852900682        1.48193172325046
C           -8.06582578538016       -1.59997869705293       -0.74200452917657
H           -8.35157991180492       -1.81519973131577       -1.77820739852156
C           -7.52587698023155       -2.88343827749361       -0.09455645368469
C           -9.35403910496560       -1.18922275251045       -0.01086780266170
H           -7.29026977639918       -2.73149482326088        0.95659910776088
H           -8.27048703075351       -3.67100142847750       -0.17941159640030
H           -6.62106623613418       -3.19395779433458       -0.61284965980552
O           -9.19693658386207       -0.70033034466363        1.21810635734665
O          -10.43871360313369       -1.32568607473257       -0.50074533243924
