42
 energy: -62.486133506203 gnorm: 0.000480799263 xtb: 6.7.1 (edcfbbe)
N           -2.32525498063936       -0.56353946355341       -0.38156694131914
H           -2.14837246024606        0.34536676780619       -0.79609414959840
H           -1.95499791275965       -1.27114475313265       -1.00593392613455
H           -2.45387002213433       -0.32003808668248        1.65385591820819
C           -3.75483763095181       -0.77012649175223       -0.15085672956529
H           -4.37899155656848       -0.56624046502323       -1.03347065623048
C           -3.97246132662815       -2.21612633949358        0.29535133934654
C           -4.13881780791396        0.16662716539764        0.99893902359578
H           -3.37497645118965       -2.43579502218290        1.17706970492735
H           -5.01818955818557       -2.37275726347297        0.53564037314865
H           -3.68197577158418       -2.90121856620967       -0.49948632249471
O           -3.23640055653692        0.16120974332879        1.98227830736058
N           -5.14038040133357        0.91793416153449        1.13716370976959
H           -7.88416297181709        0.89243831192963       -1.54049288047647
C           -6.18401558328247        1.13440149443473        0.17818957491757
H           -6.86600913383913        1.83672461590505        0.68502033783725
C           -5.68247312389441        1.80813317430907       -1.12700634073773
C           -7.04332867378037       -0.08142466960717       -0.10502001120339
H           -4.62079029748972        2.03048234854132       -1.00425980743116
H           -5.77266833375521        1.11513350916806       -1.96981802442415
C           -6.40879412890964        3.12046423460149       -1.45979546591561
O           -7.93763981418341        0.02746198822525       -1.11438116489191
H           -7.49124572860362        2.98564979615256       -1.32861568893005
C           -5.94984944752742        4.23476172046907       -0.52278853718806
C           -6.15029884656223        3.51174737721257       -2.91415741591277
H           -4.90221377450321        4.46626190410696       -0.70151794927178
H           -6.53404615068447        5.13684212076467       -0.68825763042470
H           -6.05687394773887        3.93797673362104        0.51717596755331
H           -6.51992332619436        2.75074200395569       -3.59937056027842
H           -6.64802151917969        4.44968347435908       -3.14731200350490
H           -5.08401646113121        3.63966349316200       -3.08695237131614
N           -6.98604737343189       -1.08774577191590        0.64680358514651
H           -6.52400937863612       -1.74368838688828        2.31264264824576
C           -7.88084733370396       -2.21474268377302        0.50372580952032
H           -8.92536151111920       -1.87254112011908        0.52414205549298
C           -7.67147980379526       -3.02691483759537       -0.77693815186831
C           -7.67122911714532       -3.11699940923866        1.73211684289862
H           -6.62919402818989       -3.32336161486992       -0.87290149587007
H           -8.28619027365059       -3.92111030539999       -0.72426582594527
H           -7.95750054791008       -2.44076669380379       -1.64610261582165
O           -6.84581707872513       -2.61363146732485        2.64131060145118
O           -8.21182659497672       -4.18115903838439        1.85380560407329
