42
 energy: -62.486133508617 gnorm: 0.000480687150 xtb: 6.7.1 (edcfbbe)
N           -1.49443618188301       -1.08483780279682       -1.11288163149186
H           -0.83380514154790       -1.85049500889580       -1.16635525045077
H           -0.98080553561481       -0.25908255975987       -0.81784042649402
H           -2.88655023390150       -0.33552229061864       -2.16482195849081
C           -2.55817614276861       -1.37571202106218       -0.15143465917563
H           -2.90393539569250       -2.39894235866133       -0.34725479667117
C           -2.15125233946116       -1.25347410723565        1.31382840905557
C           -3.72479108378539       -0.45654531107453       -0.48453990352056
H           -1.77379738097741       -0.25301384432284        1.51576670048830
H           -3.01965758583369       -1.42375436544307        1.94053403003651
H           -1.37892981949289       -1.98029096177910        1.55696715569194
O           -3.72893105002046       -0.02447158879984       -1.77135562622207
N           -4.59330230886732       -0.21765243947711        0.38761506082270
H           -5.83593849032330        0.11559207238964       -2.19304093956864
C           -5.74838269665222        0.63466415750716        0.17637145153678
H           -6.13997776511809        0.80223742250139        1.18571012800704
C           -5.47477837643088        1.98807208908381       -0.48999108858207
C           -6.77383473502168       -0.20321706169665       -0.55605146480607
H           -4.77647525452652        2.53559606642086        0.14767391254719
H           -4.98493716444327        1.84865378203256       -1.45618472682470
C           -6.74475956723819        2.82401328085568       -0.69476135808263
O           -6.64553958074866       -0.32226000629507       -1.89101466139386
H           -7.46915206841859        2.23305919217606       -1.26691932293666
C           -7.38959615917568        3.21884497896531        0.63144610506660
C           -6.39975890361298        4.07520691199999       -1.50192199157522
H           -6.67414780092354        3.74449917942830        1.26059419957193
H           -8.23594532370322        3.87781094946834        0.45191415883671
H           -7.75197649168396        2.34602631971594        1.16761473889830
H           -5.97042983314750        3.81120748562188       -2.46628470053718
H           -7.29154373374777        4.67144183061258       -1.67848192082340
H           -5.68035434727203        4.68699101923970       -0.96135991316774
N           -7.62793358446786       -0.83875679991028        0.11680734036179
H           -8.54954373086813       -1.07837006526081        1.65996156263544
C           -8.57707944596837       -1.73384043123567       -0.50716607153243
H           -9.01206383526263       -1.30099791737649       -1.41673121008359
C           -7.93395467056534       -3.08023607346659       -0.85839022537019
C           -9.70138822541486       -1.98387497492306        0.50878203457964
H           -7.44911965858072       -3.49842297502493        0.02147899559324
H           -8.70271292611692       -3.76571360302840       -1.20384421147378
H           -7.19193523343826       -2.94353556677123       -1.64104135757008
O           -9.42843824842728       -1.52144981437704        1.72255673739763
O          -10.71612321613167       -2.56147256853494        0.23298189139243
