42
 energy: -62.486133522185 gnorm: 0.000478023695 xtb: 6.7.1 (edcfbbe)
N           -2.18058113433762       -0.11107938335406       -1.68359422852811
H           -2.18968756947322        0.89139932324572       -1.84175811866727
H           -2.13658176711522       -0.56815119872524       -2.58744380825167
H           -1.36960967839448       -0.38581123296515        0.06693125333583
C           -3.37492519676171       -0.53231049313071       -0.95125506015221
H           -4.30581438835793       -0.10672312095158       -1.34744150542222
C           -3.46139314117642       -2.06080576842854       -0.99790876808985
C           -3.15885227138770       -0.10518624464258        0.50602512772362
H           -2.52607971542616       -2.49834696689796       -0.65418753976575
H           -4.26669584288150       -2.42434109935936       -0.36709711880674
H           -3.65037809824837       -2.39168462921271       -2.01724705452591
O           -1.88587804685168       -0.22180234485753        0.88402868635635
N           -3.99121551984688        0.27446149857648        1.37604927901945
H           -5.34405633589525       -1.63779019426998        2.10767891902026
C           -5.39733783995432        0.53571370255390        1.14984889231462
H           -5.80011307790597        0.71755229192052        2.15851506430812
C           -5.63491234104212        1.79543528255342        0.30774273874463
C           -6.08772340742137       -0.69755143759184        0.61631164846293
H           -4.94151301045444        2.56164991295906        0.66023950548688
H           -5.39559236840859        1.57867136047194       -0.73337076569968
C           -7.07142404630331        2.32681456177585        0.39056172160442
O           -5.93499308567584       -1.81410125141824        1.36202284189834
H           -7.75823769756876        1.47987495711206        0.30101802198252
C           -7.33176621870535        3.03590720186247        1.71751775249557
C           -7.33013873907080        3.28875335260407       -0.76832325684130
H           -6.66678165952501        3.88997416981910        1.82671435349681
H           -8.35780309387421        3.39393063643327        1.75779948694925
H           -7.17478073353381        2.37020845491240        2.56211906304053
H           -7.20354142527494        2.78993399451160       -1.72662142939215
H           -8.34397917179465        3.67834485034146       -0.71944582961119
H           -6.63959869149432        4.12836458727161       -0.72313980989269
N           -6.71439274890321       -0.66670446783513       -0.47368097820334
H           -7.07050358182020        0.18323571239400       -2.05457228469734
C           -7.32103597833929       -1.83310597251555       -1.06918743381951
H           -6.77226302282029       -2.75736319245505       -0.85166177139288
C           -8.77389818444724       -1.99272711279097       -0.60775399198301
C           -7.32692087271155       -1.58695441903928       -2.58488250093926
H           -9.33138532122764       -1.07850418818245       -0.80237083582747
H           -9.23636747186655       -2.81429253343131       -1.14756862771713
H           -8.79962725421164       -2.20265676812322        0.45886226633429
O           -7.20197545259685       -0.30129000214886       -2.90247029569938
O           -7.44583468003233       -2.45963978586576       -3.39727501517194
