42
 energy: -62.486133523182 gnorm: 0.000478756010 xtb: 6.7.1 (edcfbbe)
N           -1.00897712030569       -0.67367926235714        0.76759837871305
H           -0.04400239437340       -0.83679804643126        0.50717802401681
H           -1.29156756485427       -1.42999598152011        1.38496364842662
H           -2.16673452688112        0.75478958746418        1.40826631685205
C           -1.87256227558495       -0.64710852092856       -0.41138078972815
H           -1.40262762819535        0.02704168275805       -1.14025326846470
C           -2.10614919915517       -2.00875398268941       -1.06344183098356
C           -3.17711510865748        0.00922614155033        0.01431280489561
H           -2.62103285998298       -2.67324482769700       -0.37302735731666
H           -2.71907198797110       -1.89331768480788       -1.95091651356557
H           -1.15613032927072       -2.45801474589994       -1.34640652686320
O           -3.07912126917461        0.83454180638838        1.06566232558960
N           -4.23810126863744       -0.22742479807957       -0.62004774533003
H           -5.34245314124323       -1.19780171531717       -1.88730813967811
C           -5.48916482228178        0.39984372280498       -0.24613921046033
H           -5.53998335739540        0.60370538671830        0.82794437243346
C           -5.65581921474352        1.71546706463573       -1.02978868814220
C           -6.57371310785969       -0.57879257521558       -0.63412682405662
H           -4.82435422039741        2.36910990297226       -0.75636159142435
H           -5.56653678207786        1.48776332655657       -2.09570988516213
C           -6.98043795812051        2.44082963082301       -0.77647152423426
O           -6.28352288345654       -1.35927710167156       -1.68295674325353
H           -7.80377093283142        1.75189097886947       -0.98885798458050
C           -7.10099302937568        2.91212726761978        0.67015768914255
C           -7.09129781136858        3.63355238910299       -1.72537545330597
H           -6.27759883881932        3.57772572298236        0.92159937800916
H           -8.03458326425503        3.45110325801272        0.81021536025038
H           -7.09081064701701        2.07189359796996        1.35841139513432
H           -7.04355628672225        3.30984258321674       -2.76270122645973
H           -8.03524524277026        4.15048672338175       -1.57263964759118
H           -6.28133618658983        4.33809193788755       -1.54696224931286
N           -7.64772576407511       -0.62074213237971        0.02426749815018
H           -8.86895462839130        0.30697656727508        0.99976420893155
C           -8.72027986199940       -1.52215550745578       -0.33651766319228
H           -8.80513853981124       -1.65110601306100       -1.42317514229644
C           -8.53003312109152       -2.89733187274802        0.31186302275256
C          -10.02699176642705       -0.91165847865722        0.19089168998181
H           -8.39914398396995       -2.78558170164270        1.38627215763196
H           -9.40739235296924       -3.50874440958114        0.12065918495979
H           -7.65103690005539       -3.38376569763026       -0.10394697205274
O           -9.84153482503701        0.14621431780237        0.97163881453572
O          -11.10958825638047       -1.35895438471647       -0.06821830272070
