42
 energy: -62.486133502296 gnorm: 0.000481534971 xtb: 6.7.1 (edcfbbe)
N           -3.10504912743404       -1.95360264806312        1.48658975142691
H           -2.30084785748555       -2.40017648775629        1.06221551992363
H           -3.83654508458562       -2.65515386273866        1.57694400176306
H           -3.47685921024246       -0.81507204916127        2.88866213721996
C           -3.58210789184008       -0.83992728473598        0.66590447756306
H           -2.72718084338042       -0.15459998727247        0.53794759454782
C           -4.03322289027905       -1.28163068592738       -0.72272456082256
C           -4.54237674178946       -0.01995758052984        1.56597275515316
H           -4.78381861235121       -2.06272962645748       -0.65384953308171
H           -4.42984819911224       -0.45302970901433       -1.29896259279563
H           -3.17517308451784       -1.68545849946934       -1.26116726028200
O           -4.15241595376328       -0.10207913662252        2.84460165590326
N           -5.44996094709916        0.81841487904350        1.34072665698338
H           -7.11379141452776        0.93109317808908       -2.07956179684222
C           -6.28362612031428        1.10779921294062        0.21921768413236
H           -7.16034139571101        1.60927076220409        0.66041355585158
C           -5.60225786118597        2.10947706739726       -0.74722789055027
C           -6.84475436532273       -0.11726671623864       -0.49029565247620
H           -4.75681601989354        2.54798195951899       -0.21381332461577
H           -5.18720739250548        1.58265995860356       -1.61267580159014
C           -6.52213230706148        3.24910061785130       -1.21596956027601
O           -7.27908739616998        0.03509735839839       -1.75907065475602
H           -7.52223888496602        2.85325358476841       -1.43931234490682
C           -6.66846683830437        4.29975181205768       -0.11772779683261
C           -5.96415180303789        3.88976303579318       -2.48636780667183
H           -5.71298889520883        4.78598419038660        0.06496821616075
H           -7.39059492687969        5.05863187457549       -0.40960525277599
H           -7.00062986069125        3.84611247719283        0.81235789948580
H           -5.91361132108149        3.17228097219229       -3.30383116862820
H           -6.59410810694227        4.71812350483165       -2.80120618302374
H           -4.96251002265317        4.27278119998018       -2.30543776702876
N           -6.97420041912908       -1.16598717324190        0.18835289204702
H           -6.28708232026440       -2.01131911848819        1.65993821372438
C           -7.50728756509274       -2.43835796135313       -0.22234868543720
H           -8.53448211450060       -2.49602016775491        0.16887275305803
C           -7.52110283055116       -2.79140806424951       -1.70772158463379
C           -6.70899591592656       -3.48824996628348        0.57913658443753
H           -6.54323413287943       -2.61914267538262       -2.15229580914515
H           -7.76561583695111       -3.84625864568506       -1.80613652531428
H           -8.25594181446245       -2.19588853131349       -2.24117376236794
O           -6.10481479018642       -2.98262299010740        1.65289620165525
O           -6.62870816560537       -4.64394155778428        0.27140734677692
