42
 energy: -62.486133504701 gnorm: 0.000481259454 xtb: 6.7.1 (edcfbbe)
N           -2.11426850115541       -0.41461891709281       -1.61777155839846
H           -2.12130691286921        0.57992814833435       -1.82117887758942
H           -2.00065641071302       -0.90957481190046       -2.49565864667867
H           -1.48094468315621       -0.64489439997029        0.24426235785051
C           -3.36411195210364       -0.81830541026507       -0.96501672565576
H           -4.26829999680709       -0.46103169045515       -1.47020772021911
C           -3.39830000237962       -2.34568878176896       -0.88626413204371
C           -3.29827550877227       -0.26929980055403        0.46015006343508
H           -2.49499897723364       -2.71791474683441       -0.40708477158571
H           -4.26152052267093       -2.66071693754044       -0.31050892345299
H           -3.46517699366582       -2.77050927556655       -1.88552469635164
O           -2.07023788737361       -0.39399879990207        0.98331911622218
N           -4.15978484281577        0.27172390004146        1.19919674980289
H           -7.82953107302565        0.44809422845779        1.59274058507455
C           -5.51844754918928        0.65055821618868        0.98126857251681
H           -5.87992436744566        0.90757610587724        1.98889475971392
C           -5.53144176746644        1.93220169560303        0.10579360206998
C           -6.50268502216854       -0.33585393775830        0.39156742445677
H           -4.74058420781082        2.58210951283352        0.48600261169414
H           -5.26206121237553        1.63391057464878       -0.90939278384329
C           -6.84895595107943        2.71469325797768        0.06638858113298
O           -7.78728063054174       -0.21818845155579        0.89537251604982
H           -7.67019778701474        2.04061781906242       -0.20079214144946
C           -7.15610192165493        3.38143123564808        1.40670888879718
C           -6.76133247416147        3.78149898039262       -1.02501347254751
H           -6.37317259046820        4.09431526009159        1.65534620756229
H           -8.10127223648492        3.91701438188352        1.35245165978525
H           -7.22278537672145        2.66282882977949        2.22114419791101
H           -6.60625136908464        3.32316755074958       -1.99875384824024
H           -7.68081564943361        4.36046077628016       -1.06399998035705
H           -5.93511481389440        4.46076534003703       -0.82669727907764
N           -6.17960889381628       -1.17563701189286       -0.47429871188614
H           -8.69919322827988       -0.46040984307236       -0.65735839302935
C           -7.03517700606896       -2.14272128235535       -1.11773920345030
H           -6.36148645478463       -2.77670678406796       -1.70590835680651
C           -7.84508662793334       -3.02674578776021       -0.16211261562808
C           -7.97975834452938       -1.46835124902119       -2.12545247001206
H           -8.57366112838018       -2.45042607694345        0.40346587454194
H           -8.36603571383954       -3.79084298793810       -0.73382514886508
H           -7.16987999858119       -3.51092022948025        0.54018000980961
O           -8.82399865526200       -0.57108870711426       -1.61928626736288
O           -7.96622582743805       -1.73490843030348       -3.29314135219931
