42
 energy: -62.486133502105 gnorm: 0.000481702507 xtb: 6.7.1 (edcfbbe)
N           -1.36653097214660       -0.86172073157440       -0.18882680403681
H           -0.71711533679055       -1.63577895300900       -0.26068424135121
H           -1.08902228054669       -0.30508543290409        0.61506424378401
H           -2.19401323805981        0.45296462342205       -1.31358964185989
C           -2.73480866891887       -1.34512785093445       -0.00329889338021
H           -2.90710306115468       -2.12419395191637       -0.75733698200857
C           -3.03277571918818       -1.91171011593809        1.38139590222760
C           -3.67188092601777       -0.19193570381974       -0.35332662031162
H           -2.84914381481176       -1.15645363986896        2.14239817336945
H           -4.07653478422076       -2.20057980566418        1.43422558908951
H           -2.40517059174599       -2.77796303932280        1.58105564617036
O           -3.13141699153241        0.71092574360564       -1.19899268453443
N           -4.82660322563227       -0.19941840792476        0.12938461884095
H           -7.10940750934393        0.82200851138724       -2.25390072033462
C           -5.89208351682486        0.74914339881865       -0.08548782504760
H           -6.16816972912272        1.07589217890330        0.92630269572731
C           -5.60577641077577        1.98440727748463       -0.94753773230334
C           -7.05034596964271       -0.11134114231280       -0.57688449827679
H           -4.68693009454007        2.44254950042595       -0.57933275353152
H           -5.39938151003110        1.68354321929804       -1.97991660613671
C           -6.73050455813372        3.03214709888079       -0.89784247256405
O           -7.54677279698583        0.08108829571294       -1.81418569225366
H           -7.70687798153028        2.53427063736942       -0.93554344665724
C           -6.66814396249848        3.83721880217905        0.39870426695883
C           -6.61912922590044        3.97365626827232       -2.09695395465169
H           -5.72576450522449        4.37713531118341        0.46389127610584
H           -7.47979600738092        4.56028208300945        0.43326743678967
H           -6.75567170970630        3.19020960808406        1.26794149288973
H           -6.72504280174963        3.43419482008425       -3.03663537974876
H           -7.39412400677159        4.73534421723632       -2.05564543181193
H           -5.65106504559507        4.46995794248649       -2.09605384111016
N           -7.45421029880319       -1.02485294431702        0.18709593246899
H           -7.36010628494156       -1.83547070744282        1.77757563967271
C           -8.48388340772088       -1.96763666649976       -0.17743671408145
H           -9.38964070161717       -1.46137732424172       -0.53458679053422
C           -8.01735587411160       -2.96014430105243       -1.24847908439095
C           -8.82684073405992       -2.75825863428957        1.09681807633800
H           -7.08113211990588       -3.42100465223413       -0.93960943180875
H           -8.77208622117653       -3.73165021426653       -1.37303563519083
H           -7.86490011028711       -2.44605830749100       -2.19368537342254
O           -7.99465355446379       -2.52186535896611        2.10141267626459
O           -9.74427500347027       -3.52933748065660        1.16121079908305
