42
 energy: -62.486133510847 gnorm: 0.000479973117 xtb: 6.7.1 (edcfbbe)
N           -0.99681949236619       -0.94261742814586        0.15560526746442
H           -0.12549003202016       -1.15379475093902       -0.31600025801379
H           -1.19784702674286       -1.71661919519107        0.78348280712310
H           -1.88437378425947        0.46908037769346        1.11130200018582
C           -2.08866994731038       -0.79499756689579       -0.80825290143383
H           -1.72633791501139       -0.14478160330095       -1.61469708319103
C           -2.59801425059258       -2.10453885178769       -1.40594935068126
C           -3.21267044894183       -0.04161872125756       -0.11244236449759
H           -2.89291308545524       -2.78743295886008       -0.61098687561020
H           -3.47033201715192       -1.89871137544660       -2.01694339487793
H           -1.82657106234158       -2.57664766876609       -2.01105786353528
O           -2.83500244186328        0.65802144139998        0.98060626651023
N           -4.37369482217798       -0.09263811835749       -0.58438488268174
H           -6.82961168592233        0.35214678907431        2.00210227510199
C           -5.46065109119663        0.63675750198812        0.01487316428637
H           -5.17992325875468        1.05052543650506        0.99765159887170
C           -5.85994339407014        1.77381697561402       -0.94341915193043
C           -6.63270365090183       -0.30243449861503        0.17241282914775
H           -4.99028615106058        2.41753518945052       -1.09047081779405
H           -6.10053347362930        1.29823427819830       -1.89466553657544
C           -7.04940187133609        2.61401584772928       -0.46740044682782
O           -7.27532293918202       -0.25805307614508        1.40155527315462
H           -7.86852104269434        1.94450704450315       -0.18199894749017
C           -6.68287241865866        3.49187264180129        0.72856802753028
C           -7.54332751974619        3.48959779111610       -1.61740368986690
H           -5.88563360027459        4.18082792700994        0.45713725514647
H           -7.54472160604186        4.07412707040420        1.04693256823727
H           -6.34413090793873        2.90230904802553        1.57780908248747
H           -7.86073356409041        2.87383523861394       -2.45494358724065
H           -8.38809347524632        4.09560205959353       -1.29836045122501
H           -6.75111676708870        4.15372083461300       -1.95657620921458
N           -6.97075872275274       -1.03926190428735       -0.77477782150013
H           -8.95804031655468       -0.38767702967325        0.74711962967892
C           -8.04895685958931       -1.99085579480922       -0.80853753416534
H           -7.92619680344265       -2.53444847893915       -1.75243978337302
C           -8.04909359163373       -2.99499828807289        0.35238783219202
C           -9.42566861438181       -1.31042653646281       -0.87279322426263
H           -8.21671184779914       -2.50179099632444        1.30746183652583
H           -8.83117485921371       -3.73327091322370        0.19349630978123
H           -7.08674335297377       -3.50045985017171        0.38788398053673
O           -9.69772032023885       -0.45615531135975        0.11407514159050
O          -10.21886122321860       -1.54432821609888       -1.73902580160299
