42
 energy: -62.486133502500 gnorm: 0.000481090724 xtb: 6.7.1 (edcfbbe)
N           -0.87457508348278       -0.34579275283029        0.37499492061778
H            0.02890061950408       -0.60244430738993       -0.00369941874973
H           -0.97015961850221       -0.80659052326478        1.27610692499627
H           -1.97329944912656        1.19183614705697        0.71564792307861
C           -1.95575496932337       -0.76898789729924       -0.51329014181067
H           -1.67724293686927       -0.46749741060430       -1.53173385320283
C           -2.24428360638044       -2.26898720494601       -0.49095230239634
C           -3.18758553039530        0.04362003785234       -0.13655320355334
H           -2.51649592553600       -2.58128291017719        0.51512807752773
H           -3.07385457644439       -2.49470642086868       -1.15204378610568
H           -1.36761320213184       -2.82853005950428       -0.81141729165887
O           -2.93703899037433        1.17094672124755        0.54378872211553
N           -4.32880396227980       -0.37217865403197       -0.46548929321234
H           -5.52724015671845       -0.97244643315205       -2.05766021401956
C           -5.53581083550072        0.37637664668254       -0.17688230767481
H           -5.63313307820590        0.55487430020908        0.89828794647452
C           -5.57838200023549        1.72123399596889       -0.92730290156522
C           -6.67113202053109       -0.49909855330244       -0.65359508118440
H           -4.75964636949320        2.34101509800789       -0.55922765154603
H           -5.40202392238670        1.52611216469196       -1.98964523798625
C           -6.90194112247220        2.47693719546257       -0.76989350647305
O           -6.46585011849958       -1.09527311155126       -1.83853334294193
H           -7.72023068299141        1.82566622366636       -1.09499861149357
C           -7.15274964979911        2.88328482812941        0.67955639750351
C           -6.88564210634410        3.71540342793969       -1.66476640323653
H           -6.33159510166576        3.49453941151946        1.04853505319681
H           -8.07140260117744        3.46009910230632        0.75174816580668
H           -7.25366780308577        2.01059770484445        1.31831806828543
H           -6.73728421071498        3.43992259487617       -2.70661568747792
H           -7.82796179530360        4.25154700250521       -1.58495432630067
H           -6.08237680960531        4.38690283808211       -1.36830842370513
N           -7.68923036757381       -0.67249321782394        0.06773315769393
H           -8.82032634579114        0.02569208221299        1.30024902252640
C           -8.79136064987790       -1.50263111199622       -0.36908158772281
H           -8.96617833966819       -1.42377487441576       -1.44944828072579
C           -8.55034804349590       -2.97312191052817       -0.01213152298876
C          -10.04835608447998       -1.02108719264617        0.37001779700128
H           -8.33201521683961       -3.06545563386790        1.04976659277686
H           -9.44098095490125       -3.54973444080410       -0.24548192105462
H           -7.70823264706880       -3.35830541248763       -0.58166046050006
O           -9.79273174834549       -0.13674144895373        1.32695276577655
O          -11.15055324547287       -1.42147188521568        0.11747022741113
