42
 energy: -62.486133512235 gnorm: 0.000480007241 xtb: 6.7.1 (edcfbbe)
N           -1.44577338363787       -0.73017392187189        0.37276022826494
H           -0.74929020655100       -1.46454874438764        0.32246777543350
H           -1.41719538708370       -0.34753136885102        1.31451275482540
H           -2.07392185733370        0.76052189377440       -0.67017401389215
C           -2.78263437656154       -1.26362483120265        0.10303074258102
H           -2.71434212699497       -1.83613529468679       -0.83194948233851
C           -3.35016182004953       -2.15759573394429        1.20045685342953
C           -3.68761091404847       -0.06950885330053       -0.18776102368674
H           -3.44792730791651       -1.59833876796770        2.12742198342617
H           -4.33353845894413       -2.50937708888571        0.91077109970493
H           -2.69727242188026       -3.01204639412398        1.36760980426546
O           -3.02529851443362        0.98693239124496       -0.71157002807294
N           -4.90701993928982       -0.17241763801392        0.06733281497970
H           -7.75873105549801        1.15068929141573       -1.85379502590573
C           -5.97288978814930        0.77037856884569       -0.14812725861791
H           -6.19019396414563        1.19270598628406        0.84436719880198
C           -5.73239732911490        1.92601773656028       -1.13372376167461
C           -7.17946992250215       -0.09408368231730       -0.50743166836647
H           -4.70147543238671        2.25766480004105       -1.02321910745390
H           -5.82659509497040        1.55541786515869       -2.16042405924631
C           -6.65124228259613        3.13758821668198       -0.89566424662729
O           -8.03467722717698        0.30954662429043       -1.46777948589260
H           -7.65954062123990        2.80380028947405       -0.61830103869878
C           -6.11813141161593        3.99258006575960        0.25282714833691
C           -6.75033808673215        3.98018152958434       -2.16714682280304
H           -5.13625616655463        4.38875835399536        0.00329303151039
H           -6.78677579365253        4.82794299725184        0.44767376869760
H           -6.02952798259439        3.40920900147569        1.16621440698254
H           -7.18019320321417        3.41124235599942       -2.99026728981547
H           -7.37585736228004        4.85353011932239       -1.99753427827412
H           -5.76218527946546        4.32081028128724       -2.46840333079429
N           -7.32462866645854       -1.16717703900792        0.12927111287206
H           -6.70088306561546       -2.22022221851319        1.39593965977706
C           -8.39115880413578       -2.11067835066618       -0.09002409893323
H           -9.37548302602520       -1.63705500321104        0.01558301082192
C           -8.31697662078635       -2.79375395552847       -1.45938660000973
C           -8.24222776809150       -3.18570302032991        1.00330515554272
H           -7.32182547393554       -3.20725058290000       -1.61125375860791
H           -9.04659726627513       -3.59798664623989       -1.49567560344867
H           -8.52786893058064       -2.07645535692084       -2.24808292445802
O           -7.14406554919686       -3.04356018583522        1.73073284247791
O           -9.03601140624449       -4.07231959152198        1.16105882410682
