42
 energy: -62.486133509951 gnorm: 0.000480055209 xtb: 6.7.1 (edcfbbe)
N           -0.88000460692094       -0.34605818101508       -0.50295990000339
H           -0.12810165521764       -0.77514300388153       -1.02906778149765
H           -0.71229827718656       -0.53952047008296        0.48096853721174
H           -1.86142163685751        1.32962661597104       -0.39890039600820
C           -2.17464688187924       -0.89946418516609       -0.90078788411922
H           -2.21623509511179       -0.86757026069594       -1.99744118103790
C           -2.43704166197758       -2.32767325314430       -0.43173140719539
C           -3.24820310925851        0.06038080333318       -0.40841991669382
H           -2.35865348898392       -2.38731774596852        0.65197078120064
H           -3.44265963686466       -2.61486201038537       -0.71850887191383
H           -1.72013505532496       -3.01403260525037       -0.87785267423009
O           -2.82602539071183        1.32881041825317       -0.23883740986046
N           -4.40818182145409       -0.37013557044745       -0.19937782424655
H           -6.64498091788796       -0.34626943321661        2.18999507445677
C           -5.50901106130756        0.48280652139019        0.19293628001423
H           -5.30701677202480        0.90513466163823        1.18929842622722
C           -5.76495995776673        1.62507706604316       -0.80398067665435
C           -6.72865455624657       -0.41098904600777        0.24349098126041
H           -4.86498915525759        2.23593172961329       -0.87348159841537
H           -5.95067849167139        1.15623084148826       -1.77083228881587
C           -6.95630051543840        2.51508825529629       -0.43554011363618
O           -7.22734068020487       -0.69375828348659        1.50410893370154
H           -7.83354241636220        1.88153571064885       -0.26461025034116
C           -6.68736998483452        3.33853519037966        0.82283848526207
C           -7.26580983306280        3.44574138009873       -1.60647741909608
H           -5.78474298215162        3.93339948107694        0.69884156778949
H           -7.51923900289371        4.01236262176790        1.01467359851935
H           -6.56405642546230        2.70660646803504        1.69942383365967
H           -7.50542069398969        2.86955506139767       -2.49631626711827
H           -8.11515579505656        4.08325438819529       -1.37285757866230
H           -6.40846491497611        4.07941313930283       -1.82399474482839
N           -7.20992909806150       -0.85311789040073       -0.81965727912719
H           -8.97966994175652       -0.57212205474765        1.03566940119534
C           -8.33052183691783       -1.74280537804319       -0.97092023230733
H           -8.33630936065537       -2.02312046590912       -2.03062063561142
C           -8.25954141857998       -3.01587550580293       -0.11620549273657
C           -9.66949714307748       -1.04117111337726       -0.69680972826179
H           -8.32389222103912       -2.78921094325802        0.94568502637006
H           -9.07818516165141       -3.67835102152978       -0.38647140113173
H           -7.31552981156332       -3.52159653141298       -0.30533777630455
O           -9.78543868098828       -0.45968003901957        0.49759133870777
O          -10.56633411006229       -1.03167117303015       -1.49055846454175
