42
 energy: -62.486133519123 gnorm: 0.000479059010 xtb: 6.7.1 (edcfbbe)
N           -0.80138795383136       -0.21786240478809        0.28000341566567
H            0.10708521881367       -0.44502299949697       -0.10575360931099
H           -0.87953577789165       -0.68841524422266        1.17754210483561
H           -1.93783049602614        1.32349703257784        0.56639925929706
C           -1.87479949654171       -0.66249150612780       -0.60749803276668
H           -1.62540429084920       -0.30574732541286       -1.61639203720937
C           -2.08445775247985       -2.17475208196345       -0.64531768667188
C           -3.13220591351287        0.08349449421141       -0.18136400325857
H           -2.38605258793794       -2.53666125281812        0.33501432355660
H           -2.86327467162740       -2.42713805305995       -1.35684789136008
H           -1.16291372416084       -2.67325148707587       -0.94023246750001
O           -2.90496739397162        1.25234183911031        0.43405953420085
N           -4.26374338771942       -0.41990482223533       -0.40309644904236
H           -5.28129241050289       -1.46322179400716       -1.59847739740280
C           -5.50756893592399        0.25636765685156       -0.09733404530327
H           -5.59694302596393        0.44004747669792        0.97721243019028
C           -5.62523194874412        1.59430012837712       -0.85752807438685
C           -6.60573079724047       -0.68079660764603       -0.55658182514505
H           -4.79446966543617        2.22823555120429       -0.54432479332015
H           -5.50618544616021        1.38414114926533       -1.92468936581993
C           -6.93773171148398        2.35128363917988       -0.63844859881343
O           -6.25277444571646       -1.54657679184020       -1.51366794097259
H           -7.77248729313203        1.70477433845587       -0.92415715391887
C           -7.11711432667846        2.76438892662814        0.81976230706654
C           -6.95574932764905        3.58759737262569       -1.53682170134165
H           -6.27916363491854        3.37770414947009        1.14538804678249
H           -8.03126975247193        3.34137903093171        0.93427119673125
H           -7.18441259694650        1.89484178484444        1.46749613157026
H           -6.85345489741115        3.30814505021208       -2.58306702577817
H           -7.89195168935138        4.12692845433678       -1.41822095049165
H           -6.13813630710264        4.25766054821477       -1.27819091967177
N           -7.75064065016619       -0.61030450579606       -0.03261497284306
H           -8.99406203573529        0.38376423375795        0.84015429004456
C           -8.83488402828091       -1.46513758502002       -0.46553068042493
H           -8.84458240859218       -1.59746535822861       -1.55504381166207
C           -8.76151707383014       -2.84453359991551        0.19804946373911
C          -10.14642547383736       -0.78909723658221       -0.03969788559619
H           -8.70058964616086       -2.73326121765791        1.27880633364474
H           -9.65404725401412       -3.41091607011590       -0.05257357864707
H           -7.88206315532837       -3.37788499260947       -0.15396397694125
O           -9.96891094446815        0.26604122799133        0.74634094436439
O          -11.22731214907507       -1.18851701130247       -0.37412790333868
