42
 energy: -62.486132349716 gnorm: 0.000613108536 xtb: 6.7.1 (edcfbbe)
N           -2.00372515953158       -0.47234938749309        1.67918455823643
H           -1.05448177177850       -0.81302362664769        1.58043549928161
H           -2.46502066293124       -1.05988128295837        2.36928271891874
H           -3.01043912655200        1.17866708911568        1.87986612121613
C           -2.72006243238201       -0.56443703685146        0.40592126582928
H           -2.09385268346396       -0.06801241354049       -0.34845790475906
C           -3.03420296173665       -1.98509411304480       -0.05404490385758
C           -3.97738978282612        0.27802959082951        0.54522497988966
H           -3.60930170205878       -2.51019900511600        0.70461219005901
H           -3.62313611030040       -1.94810688046795       -0.96357521019399
H           -2.11329315659729       -2.53360622670139       -0.24210961585163
O           -3.87092558529413        1.29326881199323        1.43013188106604
N           -4.99605860409857       -0.00101089543785       -0.13151638200467
H           -8.52103656733150        1.39791990193571        0.16255665630455
C           -6.19160818197047        0.79754906770141       -0.08319263771909
H           -6.20704931305683        1.46945172575620        0.79192878487500
C           -6.32935478752754        1.62897980474139       -1.38442479615429
C           -7.37091337949249       -0.13904313029645        0.03409594541023
H           -5.49409502895861        1.36307569761856       -2.03489301535483
H           -7.24448357256705        1.33386027263567       -1.90562895404577
C           -6.34256887287557        3.14684331853688       -1.16681089641606
O           -8.59236745451486        0.43516261026589        0.15673769548934
H           -7.07994430464335        3.39227913257832       -0.39028865279528
C           -4.97654159340605        3.65326258087371       -0.71202615506447
C           -6.76047555718883        3.84757311767767       -2.45874797515789
H           -4.23414454655505        3.47401085689384       -1.48742728133364
H           -5.01487223069649        4.72225450756230       -0.51256794965723
H           -4.65417022258126        3.14778098294446        0.19375208126449
H           -7.75501423560290        3.53316194030438       -2.76947858294582
H           -6.77041550825938        4.92617063406529       -2.31922342193006
H           -6.06110767069640        3.61144191797747       -3.25791296899036
N           -7.18231584296675       -1.37805894203769        0.02511375066017
H           -5.98728729207336       -2.68320367641439        0.11932125589170
C           -8.22305978100568       -2.36392603621309        0.15909580265291
H           -8.92415752057404       -2.11747319528583        0.96692847182228
C           -9.01169706331114       -2.55047236704708       -1.14093374278843
C           -7.51246889424195       -3.68626826502643        0.50126061546312
H           -8.32725075348038       -2.74110011317388       -1.96494457257970
H           -9.68546367098448       -3.39587301381944       -1.03316671354678
H           -9.58751272304920       -1.65396718012425       -1.35710084838535
O           -6.19372956661837       -3.61766225830397        0.38144714188100
O           -8.09919541827066       -4.68000037438783        0.83051102957364
