42
 energy: -62.486133512544 gnorm: 0.000479762745 xtb: 6.7.1 (edcfbbe)
N           -0.95748021725384       -0.76560456039396        0.72688893259634
H            0.01572169388064       -0.84150599868592        0.45786887906936
H           -1.20697196054633       -1.61870712735584        1.21969616882160
H           -2.15389555138885        0.49067050718318        1.56688112091156
C           -1.81623174952127       -0.59623444065052       -0.44360492702628
H           -1.35573406938144        0.17328650689071       -1.07692711175523
C           -2.02698468550589       -1.86473677076692       -1.26923632431929
C           -3.13423636953618       -0.01825847693489        0.05362719481804
H           -2.52520395752900       -2.62567797812704       -0.67154905419921
H           -2.64233496136519       -1.64261210596707       -2.13472701404767
H           -1.06962815027188       -2.25511123872695       -1.60897058657525
O           -3.06494223252433        0.61524952170493        1.23119214910853
N           -4.17033391486402       -0.12436742181070       -0.65413303149034
H           -5.11268291775294       -1.53079460986844       -1.41870108760315
C           -5.44436182323968        0.40901809443908       -0.21547541046553
H           -5.44598363195587        0.64679393574824        0.85396653319608
C           -5.71270415390994        1.68997829422536       -1.02923084385711
C           -6.47950766213223       -0.66392653801853       -0.49018746699633
H           -4.89920715316252        2.38435253056696       -0.80437728521794
H           -5.64455740851815        1.43050446829214       -2.08861923439860
C           -7.05185071949882        2.38052581334536       -0.76432267143850
O           -6.05329025800144       -1.71017110852683       -1.21031975140271
H           -7.85678721367691        1.69210366182263       -1.03386955524342
C           -7.21101303012333        2.77411867835641        0.70158447285970
C           -7.16133325243838        3.61862876714833       -1.65337484142141
H           -6.39564095137461        3.42535017684437        1.01064049342286
H           -8.14840938826704        3.30566616158850        0.84531901825956
H           -7.21646698870641        1.89681374309852        1.34219316603078
H           -7.06272686957547        3.35155252014200       -2.70297947558793
H           -8.12645251747934        4.09829630748577       -1.51229454086708
H           -6.38170494063038        4.33658858211643       -1.40638017161427
N           -7.66666372661506       -0.51071296214096       -0.09196022006033
H           -9.00835925418898        0.54317453502051        0.57769946821966
C           -8.68703042228865       -1.49448291755729       -0.38214199019464
H           -8.63210695879094       -1.84500383592192       -1.42080278792464
C           -8.59014660165823       -2.70591895359451        0.55221256781614
C          -10.04856631579223       -0.82263141196060       -0.15646334398823
H           -8.60174146984547       -2.37617604372890        1.58933851862028
H           -9.43700275963505       -3.36351785744521        0.37758068713161
H           -7.66637679514214       -3.24622143567710        0.36106721763102
O           -9.96726275069292        0.35333326202876        0.45435885412455
O          -11.08799719926304       -1.32565811804857       -0.48253171316835
