42
 energy: -62.486133507871 gnorm: 0.000480511419 xtb: 6.7.1 (edcfbbe)
N           -1.36272701935054       -0.66681091011987       -1.62947487778481
H           -0.75234975996089       -1.36688578399468       -2.03307978513415
H           -0.80137292098949       -0.09239091331434       -1.00642557679330
H           -2.69972819086025        0.59549997132155       -2.15459076508893
C           -2.45215222424510       -1.29200178685006       -0.88058853038871
H           -2.87051687269610       -2.08476893260811       -1.51308808885913
C           -2.03817031045599       -1.88640063381865        0.46323727654763
C           -3.55930843824064       -0.25130309300910       -0.72103828932956
H           -1.59456707202199       -1.11692092808316        1.09219382550637
H           -2.91633117560027       -2.27556847456920        0.96594531615308
H           -1.31550679154973       -2.68763542834505        0.32073086657198
O           -3.49919290537042        0.75073179573685       -1.61087126965510
N           -4.41165721384894       -0.43662607754529        0.18052213876930
H           -7.48174219931360       -0.11937591919494        1.91024175365134
C           -5.56507575217637        0.37451545198904        0.47103717927389
H           -5.53881476650457        0.51142758380901        1.56335374048912
C           -5.67570290709106        1.74615977745965       -0.21764752208941
C           -6.78513005048303       -0.45085689107427        0.11935702677661
H           -4.75247933590121        2.29971356199840       -0.03960481390918
H           -5.76246536528246        1.56691903746076       -1.28901579178819
C           -6.86939731143837        2.58426613036440        0.25577375020253
O           -7.76254715519198       -0.55023814976814        1.09401082214664
H           -7.77636735254310        1.96962827212629        0.22917884970274
C           -6.66867762174521        3.11533419202696        1.67493921897002
C           -7.07593932000682        3.75461035959472       -0.70417003560454
H           -5.79295583765314        3.75999382162779        1.71223357210735
H           -7.53370688761837        3.69720063714756        1.98565074121798
H           -6.52765485452361        2.31340471743278        2.39702131107131
H           -7.28386074623113        3.39146290508446       -1.70732675437767
H           -7.91311963761548        4.36975900490166       -0.38210964086740
H           -6.18426086347987        4.37674200862970       -0.74043887101852
N           -6.86108014024587       -0.97193781172285       -1.01262388787854
H           -9.18116906103116       -0.38522829480025       -0.02546870804492
C           -7.92763213224726       -1.78582575659033       -1.53397547456808
H           -7.55459145257686       -2.17389286964672       -2.48890972350006
C           -8.32813998265897       -2.96356260723612       -0.63508714562288
C           -9.18305049555691       -0.96141264359139       -1.85849351937488
H           -8.76471898568788       -2.62230491602023        0.30098501152652
H           -9.05119054133498       -3.58640219995335       -1.15599610610582
H           -7.44559482798229       -3.55737975072696       -0.40827047400185
O           -9.69844328675280       -0.26639566954333       -0.84427232190391
O           -9.68710148985336       -0.95726883279306       -2.94490930170954
