42
 energy: -62.486133516772 gnorm: 0.000479585061 xtb: 6.7.1 (edcfbbe)
N           -2.00062548764812       -1.07811069157513       -2.26380260747468
H           -1.21657566668573       -1.66157041541154       -2.52861499052012
H           -1.74694622719773       -0.11416764213502       -2.46239883291791
H           -3.91624834660506       -0.95850461360551       -2.49356679649243
C           -2.31151497374738       -1.22705590790176       -0.84391654911753
H           -2.33941049113427       -2.30362852931845       -0.62929420747934
C           -1.32293340791511       -0.54994577519536        0.10273181634241
C           -3.72655704609647       -0.70268218045592       -0.64087474119662
H           -1.26236650485424        0.51329942783006       -0.11985986509897
H           -1.66499499472226       -0.66446467432671        1.12553646841423
H           -0.33370509347286       -0.99135021689209       -0.00061766635534
O           -4.48270824509361       -0.67772952040124       -1.74598053232437
N           -4.10029783192253       -0.36300097931820        0.51370997928665
H           -5.51276776659215       -2.18859622910567        1.28471447100280
C           -5.45135765154326        0.12751735054178        0.75088643209460
H           -5.54878676419398        0.18235814767528        1.84435363831481
C           -5.64854841927621        1.51984043291622        0.14212558805548
C           -6.44726412643141       -0.88681295018167        0.23706327911072
H           -4.76995116953456        2.11895585717415        0.39293002427221
H           -5.68359296415502        1.40304973579264       -0.94122925748331
C           -6.91123184065716        2.24061267739554        0.62634588662988
O           -6.29802573606879       -2.14147184979814        0.72332078683914
H           -7.73849422735559        1.52559805302926        0.62925454337991
C           -6.73082285483811        2.79278702611736        2.03892406358102
C           -7.25366184416091        3.37739441813233       -0.33534349935861
H           -5.92209403317234        3.52065933129499        2.06091599573960
H           -7.64190780892255        3.28518220077390        2.37096108711129
H           -6.49861082458183        2.00156588423413        2.74726371815841
H           -7.44935289302424        2.99546492313502       -1.33430757464896
H           -8.13856921480013        3.90973665183938        0.00514975855276
H           -6.42970279846411        4.08601616658092       -0.39202278575682
N           -7.32189531453870       -0.57241274070052       -0.60714539792969
H           -7.82108708524884        0.56597906968896       -1.89270423447427
C           -8.24898192032832       -1.52724828336577       -1.16387347905302
H           -7.76435409290612       -2.48589791620876       -1.38908630558294
C           -9.43450331393124       -1.77957635583107       -0.22679833523414
C           -8.77785004849965       -0.91965636571563       -2.47347907521442
H           -9.89905174504436       -0.83456177609243        0.04792792425069
H          -10.16645185151497       -2.40080404012129       -0.73524832454920
H           -9.09456401041190       -2.28365962358840        0.67455528196260
O           -8.40314839755676        0.33918706708683       -2.65893194224274
O           -9.47467621083951       -1.52432085908809       -3.24063856683349
