42
 energy: -62.486133514528 gnorm: 0.000479466461 xtb: 6.7.1 (edcfbbe)
N           -2.11239328550785       -0.17037582531045       -1.55860473335250
H           -2.17573205712708        0.82555914280885       -1.74416309752950
H           -2.02128995439418       -0.64756860105786       -2.44913793801161
H           -1.33525704408083       -0.37020163727909        0.25335411687365
C           -3.29629641783298       -0.64315868274270       -0.83974092276990
H           -4.24157892487673       -0.30399068616426       -1.28631424584037
C           -3.26089743040231       -2.17321148482560       -0.81424900702565
C           -3.15160224966892       -0.09360600448851        0.58607165738050
H           -2.33954300948478       -2.51908770277456       -0.34974320613499
H           -4.10434234440989       -2.57611575001955       -0.26221853326060
H           -3.30350482389739       -2.55908778438415       -1.83099930520423
O           -1.89440095375090       -0.16295631237770        1.02918223854733
N           -4.00863754625180        0.42064972175325        1.35634841940863
H           -5.15995465534466       -1.63304789812000        1.88282389641966
C           -5.41673242382689        0.58506848693106        1.07586991336325
H           -5.87749312751645        0.73559957095251        2.06407201543676
C           -5.66423915554374        1.84266363082382        0.22936329737342
C           -6.04036578772279       -0.65920465700607        0.48791119011386
H           -4.96803361962925        2.61105859309860        0.57115365273561
H           -5.42915225656963        1.61295182112932       -0.81094551541867
C           -7.09878721317188        2.37738198661872        0.32386775242674
O           -5.77034385359648       -1.80702183020124        1.15183687684757
H           -7.78805599929330        1.52935503613637        0.27402280356915
C           -7.32699054059652        3.12235878229382        1.63717292123814
C           -7.38202659872140        3.30875470146364       -0.85388954179383
H           -6.66851184800540        3.98612305046413        1.70071849624011
H           -8.35531753383381        3.47086459671741        1.69923502507444
H           -7.13509066484617        2.48327974063841        2.49513322651999
H           -7.27660332868937        2.78662881821902       -1.80212612286702
H           -8.39442577053803        3.70036791489333       -0.79262169647111
H           -6.69065523155413        4.14886132042187       -0.84458247812565
N           -6.78176051268533       -0.59928997918774       -0.52540901566127
H           -7.34085203917218        0.32415470325960       -2.00946234384818
C           -7.38378159947393       -1.76421941685456       -1.12880646239061
H           -6.75071796167711       -2.65663107035980       -1.05229694244242
C           -8.74956735110991       -2.06412286621400       -0.50071310330434
C           -7.60508400021531       -1.42480781814324       -2.61025337236898
H           -9.38178821261381       -1.17910738444234       -0.54159086140354
H           -9.22913463609955       -2.87064927032878       -1.04858889037420
H           -8.62048702739825       -2.35992974583796        0.53772689494456
O           -7.56648012109112       -0.11967718939459       -2.85947893655663
O           -7.80796363538770       -2.25263504135186       -3.45272400757241
