42
 energy: -62.486143125647 gnorm: 0.000732942064 xtb: 6.7.1 (edcfbbe)
N           -1.16825392683707       -1.25563967877323       -1.47255240129368
H           -0.34456070843110       -1.84292010518512       -1.42690155348751
H           -0.85375739167333       -0.28978369074924       -1.51196188617651
H           -2.78395156871116       -1.19279774389942       -2.43077518576461
C           -2.01934124974861       -1.45103740813754       -0.29808385347456
H           -2.11298549453368       -2.53360889513283       -0.14097832644476
C           -1.50371109168251       -0.79982212941254        0.98148268010634
C           -3.41349273159121       -0.95061388991464       -0.66299777489007
H           -1.37977268679829        0.27086710412872        0.83326357185491
H           -2.22366747489873       -0.95302237604603        1.77774182319571
H           -0.54754472821993       -1.23199754376681        1.26922813268715
O           -3.63573402097456       -0.94539562495420       -2.00954870463375
N           -4.18742050111559       -0.59334351054374        0.24612518499749
H           -5.33871021828064       -0.88258225220468       -2.15997998365188
C           -5.53935038847597       -0.10252543917659        0.23529169020498
H           -5.91139579330999       -0.25866751766615        1.25322546394436
C           -5.45381291123729        1.42492529935341       -0.02557298384587
C           -6.57383233903539       -0.69510673284853       -0.70017376094479
H           -4.69980603424626        1.80765615293761        0.66510958080458
H           -5.08002169841612        1.58209582382612       -1.04076346677978
C           -6.77517320733830        2.18288638099653        0.17191339842038
O           -6.28643443674358       -1.00495202439956       -1.96617070800150
H           -7.43105214898036        1.57858527839231        0.80565801786789
C           -6.52382002194814        3.51689719357784        0.87411321919944
C           -7.48214532540661        2.42784781382436       -1.15956751887560
H           -5.85031259404568        4.13692033399979        0.28559666779195
H           -7.45928552391343        4.05559168746724        1.00306290003272
H           -6.08196738038573        3.35949125298185        1.85523324051444
H           -7.63037579255544        1.49942090799743       -1.70325727028975
H           -8.45752305815206        2.87761142807992       -0.99160287060867
H           -6.89615056817348        3.10173431063559       -1.78235651044431
N           -7.74475717701397       -0.78378139594551       -0.22727153938067
H           -8.95396230557871       -0.31517594400262        1.01565705127008
C           -8.85495390027618       -1.23209480655194       -1.03714840818367
H           -8.82135263582617       -0.81584733520517       -2.05266233727627
C           -8.90408694267735       -2.76090810706739       -1.13500186896497
C          -10.13899184437344       -0.74870321490231       -0.34744234241867
H           -8.89480353129862       -3.19678619996114       -0.13797632248757
H           -9.81470794347953       -3.05880043740306       -1.64706742946960
H           -8.04173755043593       -3.12364825127868       -1.68888855908991
O           -9.93054676516721       -0.27284813659587        0.87440633905185
O          -11.22286987505785       -0.81391248631345       -0.85758408265517
