42
 energy: -62.486133518430 gnorm: 0.000479336851 xtb: 6.7.1 (edcfbbe)
N           -1.91158323533416       -2.30173200521085        0.03911482855830
H           -1.13879888340221       -2.29371665330951        0.69070036262390
H           -1.67593748277739       -2.91780161086740       -0.72827460649239
H           -3.62506291822552       -2.36398147084228        0.68496619754599
C           -2.24556143515858       -0.95841777116332       -0.44255029034477
H           -1.54378826274691       -0.20676968017743       -0.06618954956921
C           -2.27802773818967       -0.88789843870220       -1.96729394846304
C           -3.63784384297840       -0.60594419847850        0.08590091222685
H           -2.98321313832490       -1.61850089985190       -2.35810412904835
H           -2.60334645155391        0.10181435266981       -2.27072297458760
H           -1.29078993796610       -1.08486110203046       -2.38176014415462
O           -4.26496549769849       -1.61246368593835        0.70999201017693
N           -4.04571882718253        0.56970755021813       -0.07649213673279
H           -6.61165236266438        0.55085911927903        2.30473268307678
C           -5.37036305474795        1.04130067350721        0.24384609795851
H           -5.27513821796693        1.64632715509369        1.15830633511623
C           -5.80946151587765        1.94809437919987       -0.91895614409240
C           -6.41155481056007       -0.03395557267704        0.45461518979089
H           -5.00880862100602        2.66573975163943       -1.10096011948672
H           -5.90266001308330        1.30583949091663       -1.79494435911024
C           -7.13298064645265        2.68229447710343       -0.68369701907110
O           -7.03592959882820       -0.05778961655206        1.68850945375458
H           -7.89145413788480        1.95517783561260       -0.37238933177193
C           -7.00747471918781        3.75854114939274        0.39321313923613
C           -7.59763224650906        3.31605771921288       -1.99346775043735
H           -6.25179355595298        4.48808328857777        0.10969321786725
H           -7.95532426245836        4.27728066663589        0.51744157525140
H           -6.73026523468999        3.33697247511930        1.35667979118145
H           -7.74366658426511        2.55376462909956       -2.75432244849800
H           -8.53903347504122        3.84122823362897       -1.85041751717758
H           -6.85715366614173        4.02731201584860       -2.35349088345908
N           -6.66866545430389       -0.81985428092427       -0.48289995048670
H           -8.70113220830930       -0.38464569929409        1.03566260500175
C           -7.61192317949429       -1.90691823779015       -0.47407286972157
H           -7.42132933782889       -2.46182787337428       -1.40021629342277
C           -7.48113282645092       -2.86180057399771        0.72038953207325
C           -9.06085477470861       -1.40616338367491       -0.55108900293673
H           -7.78431737513983       -2.38500153077190        1.64984527080693
H           -8.10266269987474       -3.73805330625882        0.55314485709072
H           -6.44256880218787       -3.16874441759167        0.81624795141282
O           -9.43027359824779       -0.55932167843431        0.41112452225262
O           -9.82434662213120       -1.76225678287594       -1.40288006675787
