42
 energy: -62.486133502595 gnorm: 0.000481870158 xtb: 6.7.1 (edcfbbe)
N           -1.92030512066274       -0.76026097413193        1.49890611198807
H           -0.99467487458857       -1.15956859204923        1.40013431094650
H           -2.38810475025160       -1.26205506041256        2.24954714606891
H           -2.83086008504895        0.92606790910786        1.65337824643824
C           -2.68658930094901       -0.91011770218688        0.26132445490158
H           -2.04385404669839       -0.57254817582595       -0.56238870714998
C           -3.17113138946447       -2.33008121989687       -0.02303801533868
C           -3.85194405569620        0.06442282193396        0.33835833202334
H           -3.74308922895633       -2.70966378914643        0.82099580575243
H           -3.81620414409885       -2.31872336323825       -0.89454479228653
H           -2.32658874573953       -2.99174247601864       -0.20426371514697
O           -3.67688313365777        1.09224704212242        1.19017997372779
N           -4.87236860117695       -0.12973114789719       -0.36868188336341
H           -8.14403407499799        1.25766262535427       -1.47190333589570
C           -5.99276842599857        0.78284158849349       -0.31587872770205
H           -6.03297798163672        1.29337725940580        0.65948830574667
C           -5.87233424511528        1.83882550113125       -1.42961737181526
C           -7.23667067769658       -0.07823294683083       -0.43044987431876
H           -4.80914995849535        2.01913369334594       -1.60012575374303
H           -6.26850065928097        1.42753783958518       -2.36279261653579
C           -6.54489247056467        3.17787169940890       -1.08462805003138
O           -8.31538872258892        0.38626277977269       -1.09270230275318
H           -7.48106939421394        2.99576866115845       -0.54050612303262
C           -5.63449866554056        4.00813637894689       -0.18151658267829
C           -6.86938008207403        3.95443682357032       -2.36022491955655
H           -4.74059072273567        4.30740359025113       -0.72459132825726
H           -6.14665761761238        4.90526190986576        0.15837754833542
H           -5.32532630683721        3.43645189773144        0.68994940420256
H           -7.57178806875686        3.41018274470329       -2.98951979803114
H           -7.30945771367299        4.91830856099754       -2.11566060408583
H           -5.96222374806867        4.12916696611769       -2.93449105955698
N           -7.20957414881938       -1.18962121640814        0.15534115266302
H           -6.21680245600919       -2.34824697143111        1.01454950764279
C           -8.28201815233635       -2.15083675532696        0.16649387988355
H           -9.20282817754323       -1.72369906716447        0.58321309996562
C           -8.58448471748184       -2.72702726768615       -1.22094816128625
C           -7.80988052702429       -3.29899255606308        1.07816068376470
H           -7.66676204448792       -3.09804006095497       -1.67298665309242
H           -9.29041563685996       -3.54685008988542       -1.12144069955051
H           -9.00942068008429       -1.95798143876325       -1.86030527612303
O           -6.53197799838088       -3.19782317844899        1.42116494190747
O           -8.52171974324508       -4.20155013589836        1.42257874039486
