42
 energy: -62.486133518991 gnorm: 0.000478792391 xtb: 6.7.1 (edcfbbe)
N           -0.93489975683604       -0.43646713800191        0.31924798834498
H           -0.07378413548045       -0.83674586401653       -0.03305366618440
H           -1.03100458554078       -0.72526827963423        1.28913273068270
H           -1.88868748623494        1.23629894663269        0.37541473434488
C           -2.08467814518717       -0.90802374308998       -0.45120871827318
H           -1.83324320655028       -0.78341671005516       -1.51331635709703
C           -2.47585923374663       -2.36075803092006       -0.19262131301855
C           -3.23729035008444        0.04586005577196       -0.16236650523183
H           -2.68692330435948       -2.50756175966137        0.86428787017387
H           -3.37261256715803       -2.60111593900461       -0.75287765760261
H           -1.67181883012307       -3.03035516715418       -0.49138524687022
O           -2.86045566062719        1.26410591203138        0.26064223167401
N           -4.41812999169213       -0.35126813721616       -0.32423202326136
H           -5.85332257293299       -0.45316850708731       -2.30278074606393
C           -5.58108549206334        0.49290978961100       -0.13632597096125
H           -5.72351981203837        0.68357259586623        0.93244635615879
C           -5.51166695146192        1.83092282103599       -0.89441051222519
C           -6.74556120607506       -0.33404413613659       -0.63365925413957
H           -4.75562832487432        2.45618926268441       -0.41889708950240
H           -5.17928397847412        1.63937575314669       -1.92038582693425
C           -6.84472309846447        2.58651939392168       -0.93358295765881
O           -6.70491696580523       -0.70863306502650       -1.92541459695488
H           -7.59808968981793        1.95612932961326       -1.41973573735956
C           -7.33831588684270        2.93075025173353        0.46905550649459
C           -6.67514193113228        3.85999393363861       -1.76098153580989
H           -6.56992919919442        3.46880332989690        1.02014961884866
H           -8.22241356736027        3.56086689284964        0.40941009638260
H           -7.60228986824505        2.03168137659116        1.01890062053676
H           -6.34060467803483        3.62697953089047       -2.76976741250963
H           -7.61812280672657        4.39651568208591       -1.83030616541525
H           -5.94036371233276        4.51553551097455       -1.29822458699122
N           -7.64630729273046       -0.69405568994420        0.16907875671897
H           -8.52098512365717       -0.49404767285821        1.74474018861256
C           -8.75733600299417       -1.51891525831947       -0.25528441924886
H           -9.15141501376622       -1.20770044203268       -1.23050062019882
C           -8.35982894696211       -2.99742380415645       -0.33005887045384
C           -9.86377600397691       -1.36993472780649        0.79866121731521
H           -7.92106379457501       -3.31090121017884        0.61500983048623
H           -9.24315447445939       -3.59714602124755       -0.53079548205027
H           -7.63224908540147       -3.14465443537901       -1.12392286425243
O           -9.45923557977399       -0.75250502181732        1.90277834032953
O          -10.97647294209913       -1.79092544306778        0.64607507969289
