42
 energy: -62.486132284227 gnorm: 0.000624044131 xtb: 6.7.1 (edcfbbe)
N           -2.45353905996329       -1.69679897193003        1.87364196971622
H           -1.55445601022715       -2.16044162177734        1.93081859257571
H           -3.16952944653739       -2.41206337609170        1.97781252996289
H           -3.42770936242476       -0.15189948990347        2.54209170135148
C           -2.61445524151201       -1.03851120389334        0.57699227347799
H           -1.73623436006443       -0.39305002537189        0.43199463720352
C           -2.74545894902974       -1.98642980601861       -0.61288748175011
C           -3.81138701943042       -0.11199724691672        0.70541069548765
H           -3.50024296311136       -2.74257067848095       -0.40930467243515
H           -3.04628343043190       -1.42196315039735       -1.48880851496305
H           -1.79641868116075       -2.48170371076132       -0.80789221774735
O           -4.04803811341496        0.32694592665084        1.95665028938970
N           -4.49075667088834        0.20021653695586       -0.30547153218918
H           -7.76238009362771        1.90168697679419        0.70856801606321
C           -5.61333242146903        1.10178717174383       -0.16949133162571
H           -5.44224982166510        1.83810792423364        0.63101405358349
C           -5.76901615640865        1.79850552578208       -1.53475484126174
C           -6.84055657724196        0.29461107554744        0.18631661247249
H           -4.80545608235169        2.25623244244029       -1.76745466065601
H           -5.94059652129413        1.00992601527386       -2.26906246195344
C           -6.86874116933332        2.85799884486748       -1.65404385799804
O           -7.93372935389181        0.95535970244380        0.62868531823170
H           -7.83802716453565        2.40917771156283       -1.41008991847195
C           -6.61577951667790        4.05409659707733       -0.73585619025246
C           -6.94057218175455        3.33793765618632       -3.10394590568892
H           -5.67375903722562        4.53111457121348       -0.99808789797835
H           -7.41099589928795        4.78859332128169       -0.84495496229717
H           -6.56423351057152        3.76931926959277        0.31363266409189
H           -7.15539411608228        2.50821036703340       -3.77280730243596
H           -7.72367590741385        4.08368392914092       -3.22004464380497
H           -5.99469084755798        3.78384790847641       -3.40326369969435
N           -6.78078895173918       -0.95750343941172        0.11005859224749
H           -5.69791465116045       -2.33181613786440        0.04705746374788
C           -7.84109719268578       -1.84997042245720        0.49763139658333
H           -8.36925852022527       -1.50726973267144        1.39685286973947
C           -8.85584910267281       -2.04896085480695       -0.63244223876946
C           -7.16276109989879       -3.19788170155369        0.79887039244428
H           -8.34099829577309       -2.34041000814896       -1.54563320011666
H           -9.55760716569927       -2.82969266549541       -0.35257860843057
H           -9.39677443281018       -1.12273948302811       -0.81060066871662
O           -5.88862799093134       -3.23253056263146        0.42183464302926
O           -7.72681817826570       -4.12318090523659        1.31247706079320
