42
 energy: -62.486133492023 gnorm: 0.000483144278 xtb: 6.7.1 (edcfbbe)
N           -1.33777848028283       -1.11317609780656        1.03714390261542
H           -0.36390338877107       -1.33108943404241        0.86482456662396
H           -1.75895965079153       -1.92265410088511        1.48487181556320
H           -2.44298784950582        0.27300040462286        1.78507622473722
C           -2.03930265225095       -0.81661479206625       -0.21049100547544
H           -1.41477019439382       -0.11267222461066       -0.77601263023903
C           -2.33571294090114       -2.03806188324743       -1.07861428582847
C           -3.31431168105362       -0.07267422410815        0.16280394875570
H           -2.97017838048705       -2.73690742936992       -0.53721743975888
H           -2.85625384616045       -1.72964271759827       -1.97868564265006
H           -1.41029694660634       -2.53967930507643       -1.35526936799482
O           -3.28866711923717        0.52541914736972        1.36243760416606
N           -4.27681745118052       -0.03823980799061       -0.64702894440923
H           -5.66311337514148       -0.60400993165665       -2.26455077966579
C           -5.50412208102742        0.65992777842473       -0.31500623442749
H           -5.56533641171148        0.90194796403801        0.75081582494318
C           -5.60974538435541        1.94225982120196       -1.15535308468152
C           -6.61141941324443       -0.30277215998020       -0.66988164609630
H           -4.82557716620811        2.62670059369498       -0.82492008045525
H           -5.40867387361873        1.69184067322126       -2.20100849459163
C           -6.97434407039495        2.63242262936065       -1.05593761961772
O           -6.52474385810172       -0.84912977509686       -1.89382093941267
H           -7.74783311395446        1.92507465352204       -1.37547173744998
C           -7.28322254644590        3.07208180578174        0.37252841989931
C           -7.00232186696815        3.83718181603822       -1.99519350118533
H           -6.48840921592751        3.71021298914204        0.75324556458918
H           -8.21503405208944        3.63179252848328        0.39763110245677
H           -7.38866371538743        2.21341498577452        1.02925116405101
H           -6.80324585186258        3.53539013851659       -3.02118896693988
H           -7.97654045537528        4.31862712817668       -1.96425218513188
H           -6.25046772987276        4.56563213163989       -1.69865122721563
N           -7.49505436344437       -0.59408174942403        0.17887451501927
H           -8.42149994045828       -0.16524713836278        1.67517119563750
C           -8.55926858469318       -1.52623381602943       -0.12882575333829
H           -8.96113472972976       -1.36657741923185       -1.13731285903700
C           -8.09140864681274       -2.98046954811424       -0.00984122930948
C           -9.68257061600407       -1.28968890131460        0.89147643810414
H           -7.64396316203427       -3.14724942433325        0.96796673822732
H           -8.94544928761757       -3.64127148483403       -0.12859613973893
H           -7.35509584659212       -3.19684863864734       -0.77977214332876
O           -9.34118788562280       -0.46175741455478        1.87155988656941
O          -10.75680343172962       -1.81820359192600        0.81616003110013
