42
 energy: -62.486133514701 gnorm: 0.000479344995 xtb: 6.7.1 (edcfbbe)
N           -1.19625800804533       -0.38271101309724       -1.76509412946625
H           -0.49626343201376       -1.01021154255764       -2.14017150574825
H           -0.71297466623699        0.33674180393483       -1.23459479253456
H           -2.72825192002299        0.57873716830205       -2.35360496256226
C           -2.13453919137971       -1.09445982958542       -0.89975049921667
H           -2.42120113235355       -2.01832747508341       -1.41935489628137
C           -1.57928509608747       -1.44308673768470        0.47994417680077
C           -3.39970633519579       -0.24083883906686       -0.80923698263524
H           -1.28656303812701       -0.53636216063123        1.00531581972719
H           -2.33769973279099       -1.94796555879728        1.06827192423831
H           -0.71156314120009       -2.09292938240918        0.38430970450871
O           -3.53755086814394        0.64234577309796       -1.80402051546983
N           -4.18851499525804       -0.44602006573742        0.14790943530295
H           -5.20849811694384       -2.08912159918355        0.77656307927854
C           -5.47679419654358        0.18859851194084        0.35796928794995
H           -5.51617466695976        0.37274757252173        1.44295254904463
C           -5.77627359421931        1.49279486972558       -0.38347183241888
C           -6.49262082794195       -0.90366051294006        0.07350328628743
H           -4.88096358066289        2.11603035062231       -0.36580916198471
H           -5.99890051389911        1.25703261414169       -1.42395677662797
C           -6.94030673154437        2.27977985631746        0.23334323519646
O           -6.13701559796684       -2.13277135354780        0.49082583572339
H           -7.73470414248745        1.57659433197785        0.49826494999382
C           -6.50081021740937        3.02176696335217        1.49455146395160
C           -7.48803013721410        3.27784626322262       -0.78525305910651
H           -5.73385139240711        3.75560860787187        1.25397231725763
H           -7.34481231136401        3.54440448637675        1.93875781031782
H           -6.09892066845528        2.33884794161469        2.23934018293302
H           -7.84960975305141        2.76923049666886       -1.67532482254488
H           -8.31252966379009        3.84366179731057       -0.35797770240354
H           -6.71013879370900        3.97839462254926       -1.08217044930133
N           -7.56829516312331       -0.64553843855491       -0.52445558036402
H           -8.53435360731487        0.47204548581958       -1.56822769848841
C           -8.54540155463204       -1.66741046774686       -0.82182657410540
H           -8.07578703784879       -2.59053173878684       -1.18505785638402
C           -9.40487190463507       -2.00001752528465        0.40254472372133
C           -9.46044399277197       -1.10717377375178       -1.92153627494507
H           -9.85301089445366       -1.09164270388365        0.80049915687396
H          -10.19359153549319       -2.68779741762632        0.11120952295784
H           -8.78918747253004       -2.45917368881853        1.17203974529528
O           -9.27409384777378        0.18579384247210       -2.15576691349200
O          -10.27582779246372       -1.77327738381894       -2.49649015768538
