42
 energy: -62.486133513740 gnorm: 0.000480004909 xtb: 6.7.1 (edcfbbe)
N           -1.51248157388881       -2.08473283694512       -0.36660914749367
H           -1.39012730287294       -2.48104398345773        0.55899315898326
H           -0.63056053890561       -2.16476315767250       -0.85782686806598
H           -3.36009736222790       -2.42855286500661       -0.78606422181796
C           -1.94131304060459       -0.68887557507069       -0.28995595398974
H           -1.47992857749276       -0.12744407497792        0.53374469439035
C           -1.63908647265039        0.02382460423880       -1.60792010616355
C           -3.45066890377471       -0.68822133916566       -0.08841524860203
H           -2.10193896074516       -0.50880930642685       -2.43601418380032
H           -2.03641022591878        1.03316221820939       -1.57121159027075
H           -0.56508669922795        0.07174615184412       -1.77691219969612
O           -4.06478275992229       -1.81453753942035       -0.49189812747990
N           -3.99108190091097        0.34840393830072        0.36897642566134
H           -5.25879647228552       -1.54235956930808        1.76326620085518
C           -5.41035490895273        0.55738836331334        0.55225860723400
H           -5.51700697580790        0.89977606025654        1.59302081284886
C           -5.82519746056062        1.69745118566606       -0.38983959982451
C           -6.28678084538261       -0.66766227114265        0.39666755548335
H           -5.02308902343659        2.43748635966666       -0.37475130523119
H           -5.88656502363054        1.28629906398888       -1.39809080355580
C           -7.15055242390214        2.37255270063091       -0.02036763211565
O           -6.08126968675431       -1.67462382839105        1.27664367051979
H           -7.88136774354759        1.59580460714268        0.22103125283867
C           -6.98962413262100        3.29076517350001        1.18943054333494
C           -7.66860214941974        3.17430565125312       -1.21321739743418
H           -6.27523571073372        4.08221131254779        0.97187326025216
H           -7.94214023159630        3.75024492869503        1.44352859790582
H           -6.63838362320974        2.74296798743287        2.06022625552606
H           -7.85009223748442        2.52739254069199       -2.06788419933568
H           -8.60132242814938        3.67234243124786       -0.95944144509677
H           -6.94395799752346        3.93278457128234       -1.50230936580114
N           -7.23802894766836       -0.66898964255633       -0.42580901770207
H           -7.97302232080263        0.00932544551182       -1.91779602436829
C           -8.13390174702852       -1.79176773761425       -0.56899555738053
H           -7.60139196707594       -2.74978081636522       -0.52575579581537
C           -9.22459401251369       -1.77972586044849        0.50780033535339
C           -8.80824743476274       -1.65314959538474       -1.94234393404711
H           -9.73739495005513       -0.81967261229250        0.50686574661563
H           -9.94390293710299       -2.56653194640500        0.29935108264035
H           -8.78040933502712       -1.94426643193140        1.48618484263329
O           -8.58210134641648       -0.48027396866749       -2.52209523103015
O           -9.48929355075944       -2.51245212016462       -2.42934286661559
