42
 energy: -62.486133520286 gnorm: 0.000478877157 xtb: 6.7.1 (edcfbbe)
N           -1.21942638417195       -1.12104997258777        0.96936503518835
H           -0.23195835724280       -1.26919631106309        0.80123837067937
H           -1.61002217257610       -1.99922175633973        1.29980042150087
H           -2.40112518605183        0.14587795581167        1.83858129190476
C           -1.90329962337539       -0.70101014998313       -0.25222764236098
H           -1.30791816330919        0.10926713863853       -0.69405148917348
C           -2.09549203391298       -1.80539907928448       -1.29057125363216
C           -3.22880105164264       -0.08538549473431        0.17289786935656
H           -2.72810486831641       -2.59439957699426       -0.88893645528617
H           -2.57071891944150       -1.39752103030599       -2.17658485365789
H           -1.13341473588255       -2.23083880599269       -1.56972644990275
O           -3.25276227877885        0.39147919037795        1.42486332439791
N           -4.18314137145492       -0.02972188139059       -0.64557870316002
H           -5.28828133595894       -1.04965419115076       -1.93315912387052
C           -5.46017067037927        0.54744214588805       -0.27639380435625
H           -5.52231784950311        0.77849366618171        0.79129199878842
C           -5.68126367810752        1.82319463186898       -1.10833872009753
C           -6.50208662741661       -0.49012902024965       -0.62641531949454
H           -4.87756648331125        2.52180734226875       -0.86499793549292
H           -5.58313831379686        1.55921190808155       -2.16462674004357
C           -7.03531722786455        2.50068090637126       -0.87742722205877
O           -6.20330293985425       -1.26874600326037       -1.67633552543796
H           -7.82873098666598        1.76768666898398       -1.05362634099097
C           -7.16946522581597        3.02824808855873        0.54854467717530
C           -7.20394224274728        3.64554151847065       -1.87544734548879
H           -6.37702056196026        3.74215260609092        0.76452679453336
H           -8.12635428590967        3.52898253623152        0.67253270027597
H           -7.11605759310418        2.22038214962529        1.27256377994073
H           -7.14964080499035        3.27991901197600       -2.89839450626793
H           -8.16793396336558        4.12829920411504       -1.73654519568064
H           -6.42357372680565        4.39071932260458       -1.73452011204213
N           -7.55804511202758       -0.57258858593251        0.05566807862156
H           -8.78390756455589        0.30058683193416        1.06637513208644
C           -8.59569757435890       -1.52879748188737       -0.26211256173744
H           -8.71828256988339       -1.66141449354419       -1.34478655163677
C           -8.30910543723422       -2.89256633503948        0.37452947569880
C           -9.90951803573669       -0.98434755209435        0.31914142964411
H           -8.13090756291834       -2.77296639006446        1.44133622970362
H           -9.16522792492179       -3.54469569997232        0.22643666901188
H           -7.42995403635091       -3.33823719694110       -0.08460944616198
O           -9.74732229564610        0.08930872948129        1.08243735351278
O          -10.97587348290118       -1.49342037332373        0.11221765996105
