42
 energy: -62.486132332938 gnorm: 0.000613563235 xtb: 6.7.1 (edcfbbe)
N           -1.62856382567282       -0.53984402205769        1.06314946533088
H           -0.76563683882480       -1.04858020449056        0.91138437626931
H           -1.92827500776093       -0.72982112747632        2.01610908589783
H           -2.40409398149264        1.21758629482398        0.78376014741624
C           -2.66407134477130       -0.98349803241799        0.12868823144851
H           -2.21762685613174       -0.97485426134213       -0.87468163033755
C           -3.23780399423074       -2.36876428017250        0.41418318797310
C           -3.75087219873133        0.08082608917336        0.13345887000689
H           -3.66154320173313       -2.40290633961450        1.41501079468222
H           -4.02903185043223       -2.58301737672147       -0.29521346810948
H           -2.46152097435170       -3.12658037609522        0.33101210974947
O           -3.33381090782493        1.31066088064563        0.49444101075329
N           -4.92453929281301       -0.23509937970900       -0.17945483248541
H           -8.03934774513387        1.22483419948611       -1.57512786133195
C           -6.00445397557369        0.72590978091973       -0.21824204996357
H           -6.08369756638882        1.22459198377454        0.75973831689267
C           -5.80423280648809        1.80018658738930       -1.30350302837375
C           -7.26495557730875       -0.10078641727831       -0.41705475092918
H           -4.73726408777795        2.01719275043443       -1.36567708568187
H           -6.09648329694305        1.38754700731240       -2.27442321693248
C           -6.54569676609466        3.11745986560698       -1.01547907518380
O           -8.26923759663988        0.37306489797773       -1.18287462885659
H           -7.51534783150950        2.90867010849554       -0.54455153703926
C           -5.73795930570524        3.97888995409166       -0.04670793651781
C           -6.79306329007372        3.88347342888562       -2.31485158144027
H           -4.80199003592045        4.28583544929000       -0.50771981908566
H           -6.29621316528801        4.87079899854175        0.22848124835771
H           -5.50194422447799        3.42701346349235        0.85936837199453
H           -7.41326348572706        3.31180553886482       -3.00365284183453
H           -7.29553054823695        4.82579239344211       -2.10958364914235
H           -5.84823143101472        4.10116288904528       -2.80795627997442
N           -7.31783740494427       -1.19915656869270        0.18957381182977
H           -6.39574778668159       -2.38215837932956        1.11288145946032
C           -8.40879627588846       -2.13651096822219        0.13119694710431
H           -9.33521827989630       -1.69284259183842        0.51777660162075
C           -8.67242204894887       -2.68603301348421       -1.27473667041407
C           -8.00749435036361       -3.30906275272609        1.04741604660393
H           -7.74573137874156       -3.06445289984907       -1.70168162824451
H           -9.39235087270435       -3.49720413949928       -1.20979800587561
H           -9.06550546437540       -1.90272818926963       -1.91699093089003
O           -6.75673878047258       -3.23158584065510        1.47903933496008
O           -8.75204563881204       -4.20984130181527        1.32222838410937
