42
 energy: -62.486133516072 gnorm: 0.000479074675 xtb: 6.7.1 (edcfbbe)
N           -2.95152432663908       -1.27527662888668        1.22549881799526
H           -2.14860057577903       -1.68549686379031        0.76344018521122
H           -3.52435335386581       -2.03538839305105        1.58571655372772
H           -3.32516850535050        0.02887195454375        2.43444703833969
C           -3.73843483070260       -0.46237385733472        0.29536421701927
H           -3.04075436123652        0.26068283683494       -0.15863337495504
C           -4.34610787601063       -1.30608406789041       -0.82345286143197
C           -4.65305844324028        0.43331405302313        1.17454895908763
H           -4.93191663886716       -2.12089310316225       -0.40800109725297
H           -4.97471816259212       -0.72465941657695       -1.48869324036896
H           -3.53766331562913       -1.73894352501533       -1.41424354090905
O           -4.09901867318361        0.63422871905871        2.37497947585660
N           -5.67838792124286        1.12304492923497        0.94162108454850
H           -8.19382279647045        0.44214868276268       -1.86785753098711
C           -6.62803289879186        1.10501436682538       -0.12158557146021
H           -7.46676989907055        1.72578836828645        0.23706547209775
C           -6.07427101152885        1.76004747757173       -1.41177364656978
C           -7.23666564421714       -0.27025653790071       -0.35601817986794
H           -5.01511476988368        1.51204086259650       -1.50088564442288
H           -6.57731816597944        1.36624029459249       -2.30113806877467
C           -6.21720232658184        3.28702717875325       -1.40672878097279
O           -8.08979521254098       -0.39511880882517       -1.39727265771355
H           -7.26051468097757        3.53890686763633       -1.18093732115919
C           -5.32335484445414        3.91288211504218       -0.34065951089193
C           -5.87482573867880        3.84861219830958       -2.78601302790276
H           -4.27597830784649        3.75755940330483       -0.59146855270289
H           -5.50453905327525        4.98280315736810       -0.27371252816414
H           -5.51085803229315        3.46049389796377        0.62928456495484
H           -6.54094599554800        3.45053190224311       -3.54949749908400
H           -5.96770303286837        4.93168288708687       -2.78487861500608
H           -4.85203103126791        3.59433878495183       -3.05620379951554
N           -7.04101942061640       -1.16008348606792        0.50722730775947
H           -6.01977921536126       -1.60957417815822        1.94476618794706
C           -7.56678003240394       -2.50043183371751        0.52429461234882
H           -8.51856697693534       -2.48261717842091        1.07530731031563
C           -7.78256217724908       -3.19927786184661       -0.81688166059918
C           -6.59077752894043       -3.31129572082399        1.40259834792562
H           -6.89983948174542       -3.09493275594419       -1.44399592724599
H           -7.95417760798183       -4.25604112197161       -0.62973654708681
H           -8.63479383734337       -2.77877054511421       -1.34115256035900
O           -5.79886094741660       -2.54979780304299        2.15422221213259
O           -6.54000394085384       -4.50898764542791        1.40762766870509
