42
 energy: -62.486133513822 gnorm: 0.000479332325 xtb: 6.7.1 (edcfbbe)
N           -2.33784540460258       -1.95501370646692        1.36775778706346
H           -1.37348102368716       -2.24557210992490        1.46974776843890
H           -2.90176215405889       -2.79397799807787        1.26269942972100
H           -3.65697429411497       -0.83914289547445        2.19419127368792
C           -2.50803238881596       -1.09142875700458        0.20095913607823
H           -1.68959728254729       -0.36076902550846        0.20899836172994
C           -2.51331723817761       -1.82616093200140       -1.13862274994662
C           -3.79889532301608       -0.30921894203619        0.40245781830486
H           -3.31328482376644       -2.56403119529797       -1.15661469902830
H           -2.68473260903733       -1.11389271217462       -1.93841298233174
H           -1.56257897567211       -2.33021292374569       -1.30109020974048
O           -4.26626113201292       -0.29124322532805        1.65778207821702
N           -4.32818951323680        0.27754841401249       -0.57810285661910
H           -6.39109970837201        0.18861050459870       -2.51026468940325
C           -5.56229246342567        1.02443719128450       -0.38928019119808
H           -5.65520566960230        1.36787041118446        0.64725994581955
C           -5.58521957401134        2.21034036671376       -1.35628936034466
C           -6.65792608857396        0.01116826840011       -0.63050095261136
H           -4.82091234027572        2.91755270938685       -1.02804821308921
H           -5.28491766203076        1.87022443459656       -2.35229720794478
C           -6.93975370170469        2.92601110439442       -1.43167980385209
O           -6.95072455763255       -0.31368388444155       -1.90405130139201
H           -7.70870922738973        2.21298809717542       -1.75050076404993
C           -7.35052293200867        3.49057039917415       -0.07356689534995
C           -6.86598565201873        4.04652424637226       -2.46795530178660
H           -6.57063501375992        4.13856842742039        0.32067114341712
H           -8.26309762114713        4.07392533758215       -0.17186862094378
H           -7.53573709477403        2.69254343370080        0.64048759256591
H           -6.58907729224048        3.65674256430159       -3.44537112690111
H           -7.82873054439862        4.54328241817224       -2.55964029210007
H           -6.12561286472510        4.78650951523447       -2.17186403175983
N           -7.16119786630738       -0.56460358004804        0.36908275987186
H           -7.29875180967087       -0.72096829274736        2.16377074691017
C           -8.12360895359053       -1.63566528231720        0.25765271069971
H           -8.96019172236847       -1.36352385378450       -0.39768031271511
C           -7.48964797125323       -2.93195249087805       -0.26012689771832
C           -8.66212067873974       -1.89731165047786        1.67353603104738
H           -6.63407927727381       -3.19557100344731        0.35929728507306
H           -8.22222013908236       -3.73274710371866       -0.21396704922413
H           -7.15898438704663       -2.80056530841602       -1.28717842321536
O           -7.98446478430124       -1.26460999738800        2.62182758779253
O           -9.58981149293734       -2.62557678188271        1.89573052994984
