42
 energy: -62.486133517959 gnorm: 0.000479754575 xtb: 6.7.1 (edcfbbe)
N           -0.93459938804308       -0.07700068449587       -1.32507262769495
H           -0.21520551416848       -0.58998306883128       -1.81977952737149
H           -0.52496615626507        0.27575089180466       -0.46445162891943
H           -2.26180595598749        1.24640202971233       -1.68369684349441
C           -2.07652176190687       -0.93575333958675       -1.01813278618705
H           -2.32702054714106       -1.48181489650920       -1.93721459742916
C           -1.82876076156854       -1.93666316186297        0.10871539476184
C           -3.26311321017483       -0.01624180727987       -0.72797334193032
H           -1.65118104764976       -1.41265294284898        1.04546975509843
H           -2.69260062998741       -2.58084261425787        0.23174700331355
H           -0.96181177496041       -2.55301774188277       -0.12230809460249
O           -3.14731895020299        1.20518468391380       -1.26610853070275
N           -4.21373120442049       -0.47188471701734       -0.04657168411367
H           -5.19247715926643       -2.11227464111298        0.56549391311551
C           -5.47011131865421        0.16605504837159        0.28980520673413
H           -5.45650096113777        0.27078269941878        1.38603550181618
C           -5.80909840731633        1.51680306879453       -0.34286702283119
C           -6.49913481173574       -0.90849930049612       -0.02703584869311
H           -4.93428003068850        2.16364844808562       -0.28659410054550
H           -6.03671443051404        1.35076339850936       -1.39666081572249
C           -6.98712791880552        2.22518146204675        0.33930468642977
O           -6.13783223532240       -2.15115980075268        0.33543347299228
H           -7.77451918202585        1.49171933375371        0.53257898125796
C           -6.56314451434453        2.85089973266965        1.66714271537890
C           -7.54111481429928        3.30798639850238       -0.58500118848649
H           -5.78964984369340        3.59896416288808        1.50390086766551
H           -7.41191812299010        3.33632643075025        2.14336599147988
H           -6.17638387259828        2.10291777176921        2.35539549494627
H           -7.89954507748213        2.87920555639948       -1.51751018884646
H           -8.36933189105191        3.82762130843984       -0.10893176808350
H           -6.76765367780534        4.03739696713663       -0.81693997833864
N           -7.56981995925313       -0.62595456460509       -0.62324755236658
H           -8.51587090147259        0.52732879217248       -1.64439564224670
C           -8.54554730878684       -1.63371872777748       -0.96751675512221
H           -8.07450372073758       -2.55074290615543       -1.34418583854704
C           -9.43259482403768       -1.98996937695030        0.23035343089609
C           -9.43422551999519       -1.03810675714691       -2.07010555912776
H           -9.87940853190515       -1.08762531359975        0.64339936715357
H          -10.22232002758187       -2.66139382998029       -0.09458935824772
H           -8.83696397790752       -2.47560459811078        0.99934709837519
O           -9.24221975645995        0.26181873012160       -2.25779928542180
O          -10.23754156222645       -1.68387795143364       -2.68386325347648
