42
 energy: -62.486133506709 gnorm: 0.000480257706 xtb: 6.7.1 (edcfbbe)
N           -1.58531070949299       -0.80738082594496        1.46362614593930
H           -0.68900576811371       -1.24958188379261        1.29768315912290
H           -2.02072839031247       -1.28959627367056        2.24557416057811
H           -2.37261033621231        0.96388409624949        1.61766922142421
C           -2.44418234525565       -0.91602834942577        0.28356598654103
H           -1.85000914376209       -0.58165814265598       -0.57785824325548
C           -2.98592422503978       -2.31602218475258        0.00865038053743
C           -3.56556150917778        0.09519540961111        0.45705138000208
H           -3.57346311801234       -2.66755055185124        0.85306519716620
H           -3.62800084424332       -2.28869669835400       -0.86417649443147
H           -2.16719335735966       -3.01078864011588       -0.16761080396606
O           -3.25215510057100        1.15274411772986        1.23513268544754
N           -4.66802108147647       -0.08699063810556       -0.11463762380720
H           -7.87949416249899        1.74508988564381        0.78445056429894
C           -5.73392282366680        0.87780095647878       -0.00733043020977
H           -5.57843904081148        1.57513901891670        0.83160350855001
C           -5.76720756733119        1.65483822175569       -1.34182519751880
C           -7.01802031115386        0.11663423058714        0.21779819851274
H           -4.77531958090177        2.09179609575342       -1.48022992515663
H           -5.91627987167616        0.91542631295514       -2.13096889993257
C           -6.81802375776623        2.76199913089606       -1.47286901990209
O           -8.09814091401693        0.81565299646593        0.64412669598983
H           -7.81570315613859        2.34152659974121       -1.30638642886004
C           -6.57226313629055        3.90397478631595       -0.48664075138309
C           -6.78636745460375        3.30913788274448       -2.90027919165805
H           -5.59803475226720        4.35150976273799       -0.67198321613405
H           -7.33001468330258        4.67550434535219       -0.60605115429225
H           -6.59256031772622        3.57079319482285        0.54944797436559
H           -6.99823380414160        2.52134254387817       -3.61903709422886
H           -7.52954722542610        4.09375255068129       -3.02261571019599
H           -5.80719698898269        3.72595901896815       -3.12585793461087
N           -7.02636458610061       -1.12820981209195        0.06265360412154
H           -6.02645279872851       -2.59733614525887       -0.03925093411302
C           -8.17432161402281       -1.96329630817909        0.29807781026818
H           -8.72469876834676       -1.67201601061961        1.20235833438733
C           -9.13744439072602       -1.95184223833782       -0.89354438524915
C           -7.63349375731924       -3.39279726824539        0.48121753355061
H           -8.59652485186462       -2.18701862617978       -1.80781079553125
H           -9.91252334572308       -2.69648082516676       -0.73552708652975
H           -9.59320339380128       -0.96974981486381       -0.99302171991546
O           -6.34312141231991       -3.50619029326825        0.19982479731003
O           -8.32110686075792       -4.31249530413100        0.83087060517522
