42
 energy: -62.486133516781 gnorm: 0.000478764823 xtb: 6.7.1 (edcfbbe)
N           -1.79513422833138       -1.32296027444228        1.28701739032467
H           -0.83776142252930       -1.63789130837394        1.18396206823170
H           -2.32351157472259       -2.08172516104557        1.71041229447377
H           -2.82514094886228        0.15146535628971        1.95172742960501
C           -2.37686057070130       -0.97890748246357       -0.00979197947372
H           -1.64670864377856       -0.35347786842642       -0.53990384557748
C           -2.74252109986698       -2.17836313603379       -0.88232362883141
C           -3.59297384864708       -0.10423228557967        0.26240810395242
H           -3.46150737730996       -2.80996419306330       -0.36457208540581
H           -3.19674004363464       -1.82994384628095       -1.80327294494072
H           -1.85609080561707       -2.76529035387938       -1.11499461635593
O           -3.60657814291289        0.48682294577711        1.46722275210761
N           -4.47494647199212        0.02340908593797       -0.62503738032690
H           -6.63518092930094        0.23943899392196       -2.53163481845463
C           -5.64555505371087        0.85102686684008       -0.39122329332408
H           -5.70300705673867        1.16486169700802        0.65766410699932
C           -5.59929645639283        2.08046947325622       -1.30466225577425
C           -6.80888149632208       -0.07795473863222       -0.66067900667941
H           -4.77069878538971        2.70655554842784       -0.96600755582277
H           -5.35485668544212        1.76643460772864       -2.32508412685068
C           -6.89029590573746        2.90925825827689       -1.30548729009427
O           -7.19834977130682       -0.26780355496404       -1.93336221615369
H           -7.72726782634203        2.27813906300778       -1.62533379125841
C           -7.20876812411149        3.45140971977460        0.08597141426255
C           -6.75118392977670        4.06125842031998       -2.30003461743584
H           -6.36437857714466        4.01458512663971        0.47749775788843
H           -8.07073377405802        4.11300920904048        0.04059526471469
H           -7.43952797787922        2.64436820858162        0.77623190458616
H           -6.54021694636040        3.69030562218594       -3.30105377074422
H           -7.66937875726702        4.64214126916856       -2.33885231063663
H           -5.94035671475460        4.72227331798560       -2.00154696694481
N           -7.28529714250335       -0.72248831811635        0.31119527538130
H           -7.46592674729095       -0.93665703709448        2.09174758327268
C           -8.32386106001965       -1.71458533583488        0.14672825960225
H           -9.14201632258696       -1.34669815297934       -0.48501182303285
C           -7.78158967187766       -3.01559121346797       -0.45553131898730
C           -8.87914881455032       -2.02129225325946        1.54614544144470
H           -6.93388505246796       -3.36759564532956        0.12913118698449
H           -8.56322576743181       -3.76993414732813       -0.44029866993654
H           -7.45931916962519       -2.84542869027189       -1.47935573053303
O           -8.17702898755927       -1.46586356872969        2.52626267900189
O           -9.84048257217040       -2.71461003188481        1.73207022632678
