42
 energy: -62.486133507913 gnorm: 0.000480798335 xtb: 6.7.1 (edcfbbe)
N           -0.86279039438359       -0.93160526812755        0.25547150452939
H            0.06696473131404       -0.91281781009246       -0.14505659002539
H           -1.03152584936595       -1.87741446631744        0.58723785280151
H           -1.92850596253631        0.09746464369113        1.46770388168883
C           -1.87146979625369       -0.56597126185058       -0.73904821739570
H           -1.49275170770263        0.30628745707124       -1.28633115110552
C           -2.22169274681306       -1.66966612439122       -1.73390831663029
C           -3.10435724378608       -0.09445216430649        0.01788997895126
H           -2.55721652981114       -2.56004913887162       -1.20548334226135
H           -3.02753993385690       -1.32943147311065       -2.37508665114792
H           -1.35612905361788       -1.92444222772156       -2.34175054557508
O           -2.88048413306967        0.25581144183943        1.30311017116691
N           -4.21549870761092       -0.05610109678144       -0.56599327606284
H           -5.13763243012468       -1.52540403259001        1.35777511446330
C           -5.40073312402240        0.47042967520838        0.08196677332656
H           -5.18839367739637        0.81109610530677        1.10821048355059
C           -5.92647697599216        1.63186767693111       -0.76620760455463
C           -6.37322362434153       -0.68497099101670        0.15784770372131
H           -5.10216431322423        2.32966475680875       -0.92754462324189
H           -6.21151500687571        1.22224825332684       -1.73484524386745
C           -7.10937488485098        2.37687159781124       -0.13803493543223
O           -6.00702112642050       -1.69916415710145        0.97456392936177
H           -7.81451644717963        1.63950092975176        0.25581303038501
C           -6.65327009983359        3.28179423627681        1.00506420038585
C           -7.82014413637125        3.20777778556714       -1.20480599494731
H           -5.96716951832255        4.04142773022117        0.63558718061216
H           -7.50749023737026        3.78314977098757        1.45424714533341
H           -6.14901604377126        2.71470441518805        1.78343816220528
H           -8.20432718313330        2.57313242690027       -1.99941451567448
H           -8.65480161358357        3.75155412673569       -0.76876749032927
H           -7.13310203363431        3.92944720090519       -1.64181498270671
N           -7.42807404139315       -0.69394087639726       -0.52312750849522
H           -8.40009974568935        0.01523665845264       -1.86118342641904
C           -8.36064114739119       -1.79571739937957       -0.50602331211571
H           -7.85025979238102       -2.76408329995756       -0.58098412698787
C           -9.22823209936944       -1.79077671470023        0.75749225525190
C           -9.28046266534760       -1.62036955251951       -1.72562597792367
H           -9.71872624185845       -0.82563637622675        0.86841782963773
H           -9.98486794008236       -2.56576952981427        0.67470428015228
H           -8.61127963076999       -1.97886684442200        1.63253707596734
O           -9.12818744339510       -0.45259487868101       -2.33671009142564
O          -10.07199070943577       -2.45224702850813       -2.07239555611356
