42
 energy: -62.486133512832 gnorm: 0.000479944159 xtb: 6.7.1 (edcfbbe)
N           -0.76560227986696       -0.14415251794900       -0.48997285509317
H            0.00568595656514       -0.31555374095039       -1.12297360889277
H           -0.54872045290513       -0.60753268735596        0.38809066380208
H           -1.84280575586467        1.32241139863135        0.12690903119872
C           -2.01811367157576       -0.66839890260724       -1.03398714995843
H           -2.06451518448072       -0.37891695779355       -2.09121445758778
C           -2.18143602775744       -2.18241892209540       -0.92190953496582
C           -3.15603814578554        0.06673243474660       -0.33968300929387
H           -2.08808903654439       -2.49460250382419        0.11684349163304
H           -3.16681732681767       -2.46232492827137       -1.27859858633973
H           -1.42397191491839       -2.69318426218743       -1.51269003484764
O           -2.81165572136555        1.23162479708711        0.23622589261924
N           -4.31154736586362       -0.42752956313820       -0.35360928768760
H           -5.53130203552497       -1.67497217511676        1.65219598907118
C           -5.43910581723209        0.26419055629626        0.24656744219642
H           -5.19073380851705        0.57728778736316        1.27269230719388
C           -5.83055042627793        1.49623179051755       -0.57872658330611
C           -6.53580082951165       -0.77608120124174        0.29381168448798
H           -4.95899706245973        2.15082280300603       -0.63443507974121
H           -6.06491168137324        1.15215959866698       -1.58692840977198
C           -7.01640278858890        2.28449831589482       -0.01385769084862
O           -6.39537636080484       -1.74269481149207        1.22821056830218
H           -7.83627016582417        1.58804666229160        0.18388200375310
C           -6.65107634998710        2.99743345759790        1.28652732415910
C           -7.48573464786006        3.30333709637146       -1.05110691820143
H           -5.79979264887541        3.65720744564438        1.13163934464866
H           -7.48945338017759        3.59588723718451        1.63579293238269
H           -6.39830912077323        2.28816818673507        2.07066379081967
H           -7.79060669691712        2.80691522853478       -1.96903711739584
H           -8.33285249837941        3.86999793230911       -0.67189550341065
H           -6.68479930118880        4.00139520959409       -1.28584571838789
N           -7.46766574659268       -0.76896349583464       -0.54911010452341
H           -8.16124370486240       -0.12543294394741       -2.07754783625057
C           -8.48863133657849       -1.78922576046678       -0.58483237103141
H           -8.06233867593216       -2.79613541441671       -0.49310982091485
C           -9.53105783604556       -1.59159538899976        0.52130304014724
C           -9.19575942867433       -1.66678622202628       -1.94399613978292
H           -9.94071867353709       -0.58449050478866        0.47104123744829
H          -10.33581713533659       -2.30888072644258        0.38765385841658
H           -9.07085007057055       -1.74023397750109        1.49482496959712
O           -8.85031736677927       -0.57860793540615       -2.62055153187130
O           -9.99608873403700       -2.46765823374247       -2.34032113063952
