42
 energy: -62.486133509355 gnorm: 0.000480723478 xtb: 6.7.1 (edcfbbe)
N           -2.13974833821415       -1.61410767320860       -0.71410725072962
H           -1.51687299539958       -2.38724687768498       -0.51406959127526
H           -1.56356299888967       -0.79334116182613       -0.88160292613684
H           -3.69731862625839       -1.22307344493086       -1.79758195780224
C           -3.04062026033979       -1.36404035023024        0.41154835942740
H           -3.45594950123299       -2.33291297969729        0.71795556524649
C           -2.39185535027067       -0.69195929637767        1.61874229027265
C           -4.20865906559075       -0.55006759873691       -0.11831386433604
H           -1.93332300740138        0.24968870720283        1.32283484507370
H           -3.15418822553843       -0.48312347494128        2.36137986113497
H           -1.62951571851408       -1.33707172336648        2.05075943903577
O           -4.41399496098081       -0.65705757715370       -1.44614242734459
N           -4.92106324743721        0.11734769414861        0.67391272119371
H           -6.99773087810761        0.88815248327153       -2.14555842464905
C           -6.06830240782617        0.85761705356832        0.17542475928485
H           -6.57524810371464        1.22048342812930        1.07826260133111
C           -5.63973571071439        2.05676807666867       -0.67933634924218
C           -7.01636615398119       -0.11289062721079       -0.50969881087205
H           -4.78080096348687        2.51330344145052       -0.18186759278016
H           -5.28264451162677        1.70250204045468       -1.65161218224241
C           -6.73537886801446        3.12072608610747       -0.85219956819711
O           -7.42531358336676        0.10736511280266       -1.77175020214721
H           -7.70535838860155        2.63258905382196       -1.00546232843288
C           -6.84396710050300        3.99469802647197        0.39553853771729
C           -6.43120317673780        3.99139547852536       -2.07149588995525
H           -5.91756320273564        4.54243712287916        0.55507405395095
H           -7.65255312613662        4.71353117462564        0.28490639699556
H           -7.04300842363579        3.39295165026940        1.27843107372889
H           -6.41954616392343        3.40306661174253       -2.98755001027335
H           -7.18303738321416        4.76952798009093       -2.17939395873715
H           -5.45989223851220        4.46886638409273       -1.95983831116811
N           -7.36608211868603       -1.12707274452279        0.15136182254700
H           -7.47709617862039       -1.97864695462554        1.73254010286943
C           -8.21244396364248       -2.15803189284920       -0.40065520162749
H           -9.08583256199144       -1.74070393468945       -0.91756702800762
C           -7.44358520224855       -3.05927018277432       -1.37371579518255
C           -8.69348037762016       -3.01926624096462        0.77746687928082
H           -6.55705131181366       -3.45752926570832       -0.88378535596671
H           -8.08126139611414       -3.88285751183504       -1.68175709763964
H           -7.13917170912386       -2.48738355102492       -2.24649256242039
O           -8.08289547529353       -2.73630936315999        1.92086200785818
O           -9.52304495217730       -3.87917740122724        0.66393901903608
