42
 energy: -62.486133497991 gnorm: 0.000481637204 xtb: 6.7.1 (edcfbbe)
N           -1.16839302360441       -0.66175611568373       -1.35272226976137
H           -0.38774935777585       -1.29459287301964       -1.47743228414655
H           -0.79601284882193        0.21690882426163       -1.00258034639416
H           -2.69235300165349       -0.07512532057401       -2.32259590944649
C           -2.13706092798740       -1.20353489495076       -0.39926005557614
H           -2.30570227178576       -2.25486137128279       -0.66705549082346
C           -1.71457146532798       -1.11843026250961        1.06421361779143
C           -3.45266209330538       -0.47696785247972       -0.64116156619094
H           -1.51068135270090       -0.08439866240323        1.33618089272036
H           -2.52096354242291       -1.48285459037628        1.69137063738019
H           -0.82128280586927       -1.71468837452474        1.23825025330851
O           -3.56889288753453        0.03526269651490       -1.89766082927758
N           -4.32504502216248       -0.45615371669856        0.25609694543909
H           -5.35930103329117       -0.71489223855310       -2.04234647434201
C           -5.59919207683426        0.22223633549939        0.18505791594581
H           -5.95147308741211        0.26649400200518        1.22009669108175
C           -5.53387782382696        1.64799070905595       -0.39475705771623
C           -6.60561265487545       -0.59340467786282       -0.59508014172818
H           -4.69429474427820        2.16394408080055        0.07739271371612
H           -5.32894732835328        1.59339991412369       -1.46630250340002
C           -6.82069757067657        2.45024679592644       -0.17080244874599
O           -6.23692168367459       -1.05341841460940       -1.80227901592862
H           -7.67523208349417        1.82267629557507       -0.44397694191703
C           -6.97622320364799        2.87445593207823        1.28729818743347
C           -6.81780035118370        3.68414027794990       -1.07257202759461
H           -6.14813924995699        3.51439303011193        1.58606425521919
H           -7.90212111407563        3.42881972279673        1.41804362664974
H           -7.00396469290612        2.01335240162187        1.94898125327848
H           -6.76198631060891        3.39877566480958       -2.12086345059411
H           -7.72672873951923        4.26204872997053       -0.92532827084436
H           -5.96538931463391        4.32076566391865       -0.84288908999390
N           -7.76014612500272       -0.74725299658789       -0.11305488831379
H           -9.05642329197455       -0.17237208197496        1.02155939614481
C           -8.79711836107140       -1.44795453484887       -0.83602507113160
H           -8.77761854808339       -1.21790068011859       -1.90938849684686
C           -8.68036690055666       -2.96498799761653       -0.65422171860641
C          -10.14289698225733       -0.98941013373598       -0.25522090536573
H           -8.65163428051330       -3.21019615522982        0.40547380652097
H           -9.53976721198964       -3.44831118976440       -1.11036893674358
H           -7.76889945894773       -3.32420813436805       -1.12567490173388
O          -10.02317805008224       -0.26953000217289        0.85421417433499
O          -11.19886838824547       -1.27073353702204       -0.74973819397983
