42
 energy: -62.486133517357 gnorm: 0.000479450208 xtb: 6.7.1 (edcfbbe)
N           -2.08370491171577       -0.78620667780239       -1.60657270851922
H           -2.05143158433371        0.10909076496943       -2.08402778833068
H           -2.03221632308453       -1.51422085747502       -2.31037033100434
H           -1.35766857201467       -0.43350633506862        0.14961356517950
C           -3.32390958493520       -0.90973202676280       -0.83319114908599
H           -4.22543049714139       -0.62306112872299       -1.38594834874177
C           -3.46035417570446       -2.35554075485027       -0.35275465386597
C           -3.15939308122902       -0.01423238754772        0.39525900190583
H           -2.56113047993327       -2.66026107291318        0.17913079260293
H           -4.31037034446271       -2.44284094615667        0.31646033388353
H           -3.61113877884515       -3.02235841653436       -1.19916495734674
O           -1.89495075959822        0.01383705337662        0.83617471508159
N           -3.99029355470229        0.67587329385023        1.03931439964570
H           -7.15077086754460        0.05336684081831        2.25028122093591
C           -5.38423269078513        0.92961324522536        0.84991046251721
H           -5.70561705597682        1.34400377394045        1.81793619103895
C           -5.55215396239174        2.02518920975881       -0.22837987148896
C           -6.32561566438729       -0.20803670555836        0.50305050804482
H           -4.83030844957878        2.81529259900683       -0.01510849396119
H           -5.29528332972999        1.57306993348847       -1.18728122341529
C           -6.96232174656532        2.61985526375038       -0.31288956038025
O           -7.29596581133873       -0.46906662817142        1.45103547163186
H           -7.69375756264063        1.80470988859557       -0.34845896517153
C           -7.27474849775941        3.51488773737088        0.88449718261068
C           -7.09463307354779        3.42181534664759       -1.60635757648521
H           -6.57004704870647        4.34232869574544        0.92823375287605
H           -8.27858197107167        3.92330861084474        0.79488874452278
H           -7.21723225612898        2.97013766887084        1.82385625681763
H           -6.93883216470693        2.78110933172278       -2.47080803363206
H           -8.08698151714537        3.85932731887044       -1.68181253739781
H           -6.36060113453059        4.22437463739864       -1.63182461405337
N           -6.24035329685739       -0.82548847350085       -0.58143502299576
H           -8.69530462829177       -0.63086270759913        0.25833662897274
C           -7.10732279232547       -1.87240683681496       -1.06092568408948
H           -6.61069541739366       -2.27297186151989       -1.95232456905504
C           -7.38386360147296       -3.02188061298900       -0.08358279155677
C           -8.44855916531561       -1.28658170360929       -1.53300264844706
H           -7.91636572945953       -2.68232030303370        0.80172056574650
H           -7.98175584060128       -3.77873213128070       -0.58568965486017
H           -6.44457428241328       -3.47136422668320        0.23063047100728
O           -9.15111920736276       -0.63909260645516       -0.60390775244821
O           -8.84659785315663       -1.41122977642586       -2.65485487962211
