42
 energy: -62.486133527548 gnorm: 0.000478467649 xtb: 6.7.1 (edcfbbe)
N           -2.88214275359009       -2.06198875658131        1.82003692132404
H           -2.01502330949264       -2.55953635927714        1.98255029027955
H           -3.59180591245183       -2.75359752350270        1.58539577128887
H           -4.06467450832695       -0.74877970272350        2.56231385603257
C           -2.74003714332393       -1.11452986829148        0.71605687439658
H           -1.86241904376919       -0.48973302306973        0.93242694155423
C           -2.57539889633908       -1.75176195088344       -0.66244603759902
C           -3.95379702754144       -0.20292690443726        0.77191339604056
H           -3.36600918031180       -2.47798441819661       -0.83512976882662
H           -2.63859902188125       -0.98146764579665       -1.42319031390024
H           -1.61408106164122       -2.25634801466319       -0.73387095246455
O           -4.52402516297735       -0.10280547247474        1.98570238493636
N           -4.35172064365837        0.40504750104855       -0.25689517891696
H           -7.66776964705055        1.95825572804810        0.80833717897583
C           -5.54289206684154        1.22222928321435       -0.17507338446645
H           -5.41035302784980        2.00642353324953        0.58570588250148
C           -5.74426036700281        1.84695582738596       -1.56717595764991
C           -6.73476088856785        0.37976461303293        0.22680892527620
H           -4.80340900453152        2.33005409577646       -1.83561985508161
H           -5.89837045807374        1.02174891914674       -2.26424094985729
C           -6.89070168950042        2.85372273202577       -1.70403181911159
O           -7.82402514495981        1.01062956073881        0.71453006749966
H           -7.83054961728976        2.37948104999173       -1.39964969614771
C           -6.65858260978250        4.10623577459409       -0.85863272529336
C           -7.03260750241489        3.25334122205021       -3.17275517964747
H           -5.74065232887217        4.60025768401816       -1.16984516651877
H           -7.48221850734147        4.80544697706769       -0.98661615267604
H           -6.57340702251580        3.88109582532080        0.20299556290946
H           -7.23681660208934        2.38207540869200       -3.79012402887968
H           -7.84897741630737        3.96105521863042       -3.29788907995425
H           -6.11656549002785        3.71924969397840       -3.52882523221911
N           -6.65862964744608       -0.86972304110119        0.11860876776142
H           -5.53686394733247       -2.19768635784940        0.07886687621007
C           -7.67919896674437       -1.78799644967219        0.55025866517132
H           -8.20723511894434       -1.43683168867694        1.44597654157988
C           -8.69819542280562       -2.06085667465158       -0.56007645639684
C           -6.94632393327556       -3.09775234589450        0.88527198840827
H           -8.18339949955672       -2.36250974637123       -1.47005136065662
H           -9.36790617040559       -2.85694905686152       -0.24709985087905
H           -9.27459568515830       -1.16124702339213       -0.76148271349760
O           -5.67539728312657       -3.09443582703190        0.48742988850470
O           -7.46179254199045       -4.02764853144988        1.43847001307148
