42
 energy: -62.486133513667 gnorm: 0.000479288913 xtb: 6.7.1 (edcfbbe)
N           -2.29739612060136       -0.45518287143956       -1.90398378608967
H           -2.36410364591599        0.49271008050022       -2.26034431650990
H           -2.31617601611367       -1.08741428424190       -2.69676348548633
H           -1.32991616515516       -0.30455640362416       -0.22223061714390
C           -3.40526591997033       -0.74430498039747       -0.99093918858201
H           -4.38207498057865       -0.43639057416523       -1.38706346210227
C           -3.41292431679987       -2.24793917981287       -0.70642143408608
C           -3.09106872416128        0.02522136828049        0.29937419814236
H           -2.43732302322994       -2.56148391821796       -0.34088355560797
H           -4.16161010843609       -2.50295408965579        0.03680883859103
H           -3.63737114081047       -2.79648867816415       -1.61894966139304
O           -1.78459772708917        0.03905306568796        0.57472477966400
N           -3.84812437548839        0.65299910452374        1.08812013011594
H           -5.17088962707180       -1.29601362836879        2.20847399802968
C           -5.28576654463191        0.76945996535802        1.03162626454508
H           -5.58568240401732        1.00836017387231        2.06278948783556
C           -5.67243563394078        1.94435444615447        0.12007384912956
C           -5.96954123791706       -0.52089856486648        0.64597945118465
H           -5.00693656441165        2.77554236602098        0.36028053391686
H           -5.48119892265444        1.64922238101643       -0.91282187421441
C           -7.12970459971619        2.39817289408053        0.26068418017240
O           -5.77115254868566       -1.55583606184272        1.49639868421067
H           -7.77187676875756        1.51240917976123        0.25710683332315
C           -7.35407936664102        3.16459862449140        1.56206482529709
C           -7.50724630506623        3.27852158040702       -0.92986522214837
H           -6.71932855228275        4.04738450050149        1.59542169768398
H           -8.39057925239064        3.48538273908204        1.63563206147442
H           -7.13084217826434        2.54928223838230        2.42963831322755
H           -7.40676830035270        2.73374706340900       -1.86581241723596
H           -8.53693743904244        3.61619702743665       -0.84156973691925
H           -6.86301198995867        4.15418757425325       -0.97063969002613
N           -6.65074144389198       -0.61238942343910       -0.40678660413381
H           -7.13090669374797        0.06272778861609       -2.05095946375704
C           -7.26702260627233       -1.84401538205193       -0.83913041289594
H           -6.68707970290970       -2.73164748703497       -0.55966806350674
C           -8.68577457706423       -1.97339077615844       -0.27336995658693
C           -7.36993927808201       -1.76226669391802       -2.36860592066026
H           -9.27183961890551       -1.09174707835713       -0.52598856085489
H           -9.16447234953561       -2.85274042648960       -0.69506306846046
H           -8.64226168456413       -2.07112737125956        0.80877278605288
O           -7.30070634603702       -0.51621860519949       -2.82910080006598
O           -7.51347222669011       -2.72012158000307       -3.07412005647703
