42
 energy: -62.486133510611 gnorm: 0.000480153854 xtb: 6.7.1 (edcfbbe)
N           -3.01385190034613       -2.54582204953473        0.23324450253881
H           -3.55555844701732       -3.11526635147279       -0.40908476768479
H           -2.89723151554531       -3.07088936433611        1.09218856563757
H           -1.94305605968706       -1.49820343709464       -0.92712106155977
C           -3.69105907919309       -1.27322577398446        0.48956599180872
H           -4.77571337923347       -1.37564682465515        0.62066951116434
C           -3.08421909056107       -0.61584322104482        1.73095761549293
C           -3.40310595822023       -0.36716457816734       -0.71214003013737
H           -2.00558450448592       -0.52928789127160        1.61598626202020
H           -3.49834978715400        0.37823412121020        1.87586951510732
H           -3.29635740252614       -1.21289576598085        2.61577889692422
O           -2.27272927693030       -0.67207577042152       -1.34526826196271
N           -4.05185471008066        0.63909427553291       -1.10985966739550
H           -6.27472232656614        0.76832398498746       -2.79928725080821
C           -5.33424343806251        1.06512326053163       -0.59628556416309
H           -5.34576366649274        1.07852030962149        0.50240500275576
C           -5.61055615400097        2.47518580973975       -1.13083084994771
C           -6.36157924509809        0.04694558830174       -1.03799605775677
H           -4.88526769324171        3.14558679892068       -0.66708114935428
H           -5.40457978708224        2.49544848573537       -2.20457121622180
C           -7.02970959845087        2.98753619999697       -0.85729217727202
O           -6.73404401709045        0.06047192554798       -2.32768229841292
H           -7.75572156007118        2.30990869412655       -1.32160736543001
C           -7.32743609858593        3.04935588277170        0.63947731203608
C           -7.19702021178257        4.37108048912653       -1.48363488124455
H           -6.57026243000951        3.63746296108115        1.15361611769143
H           -8.29537741421631        3.51512003582716        0.80889353438135
H           -7.35362568914659        2.05390594942515        1.07558620227624
H           -7.00014088426336        4.34050759601087       -2.55302281141326
H           -8.20971114164848        4.73698825275276       -1.33350032454561
H           -6.50613056951253        5.07702787321032       -1.02825659766280
N           -6.73109760675374       -0.84997172294646       -0.22846737676632
H           -7.18661121480360       -1.24790505285521        1.49369011066791
C           -7.62760232050619       -1.91078986561244       -0.63947976188350
H           -8.39227962278560       -1.55068514230695       -1.33857762072511
C           -6.86270635327180       -3.06406451551264       -1.29759885562973
C           -8.32421443180618       -2.44469759358081        0.62051673164230
H           -6.11132094990451       -3.45189392958667       -0.61198839274184
H           -7.55859540195623       -3.86173229701975       -1.54098275493835
H           -6.37546383850502       -2.71661354088423       -2.20545728857777
O           -7.86684953207955       -1.91124570709490        1.74964233203823
O           -9.18488677307837       -3.27793058294929        0.58792739702554
