42
 energy: -62.486132305519 gnorm: 0.000619671996 xtb: 6.7.1 (edcfbbe)
N           -1.37438136956263       -1.58506855170456        0.47866451666231
H           -0.42135799490951       -1.76531988292708        0.18715741537383
H           -1.81092477486780       -2.48470168209845        0.66351015734213
H           -2.37962191572660       -0.49029268237681        1.68946559120631
C           -2.11765517268754       -0.88376667907054       -0.56930168291919
H           -1.47844998091273       -0.07045451066139       -0.93590501177211
C           -2.54589732570543       -1.75818759925497       -1.74549145882705
C           -3.32285792545769       -0.22879099750289        0.08708843958347
H           -3.13278803853699       -2.60217711704711       -1.38817586078386
H           -3.16715852206772       -1.17348480588603       -2.41505169145789
H           -1.67621068739451       -2.13164281927968       -2.28238792147662
O           -3.23592717273589       -0.09345019758140        1.43060026945575
N           -4.28770759960593        0.15181532136940       -0.61960178091572
H           -6.38322303215876        0.02926428695592        2.06626688794073
C           -5.41951768825251        0.82266414320288       -0.02114928338454
H           -5.16121943093487        1.24129412762606        0.96421237719885
C           -5.86684484384904        1.93265053000791       -0.98128917304347
C           -6.52907640543847       -0.19159576342822        0.13451775571642
H           -5.03150648484607        2.61976169954612       -1.12665771482346
H           -6.07999650129893        1.44338812474263       -1.93098971168616
C           -7.10167335129537        2.70634459660399       -0.50918367620777
O           -6.94628428632269       -0.43282109371839        1.43251859455365
H           -7.88778501658078        1.98908710799732       -0.24783936387512
C           -6.79959078011934        3.57469630039778        0.71121204840878
C           -7.61912677398109        3.57962708881092       -1.65026355783642
H           -6.00449183032423        4.28181368292163        0.48333327143555
H           -7.68456810099223        4.13684148423385        1.00065087517704
H           -6.49070347616783        2.97665238553600        1.56530985774631
H           -7.88550897649480        2.96644575719727       -2.50721086335859
H           -8.50143074921413        4.13275446821035       -1.33711929936379
H           -6.85679137058010        4.29226050343479       -1.95817923590432
N           -6.97932480319704       -0.77452135373225       -0.87306923426312
H           -8.71286665196419       -0.55525861484599        1.02948282547712
C           -7.99315934528498       -1.79420155570941       -0.91592030119878
H           -8.00182460628357       -2.14948216644838       -1.95281440734339
C           -7.73931138790902       -2.98441688574414        0.01983594403899
C           -9.39769613833902       -1.23790724813129       -0.63351632795992
H           -7.77658402543309       -2.68603837688017        1.06528955479807
H           -8.49031558186911       -3.75052413565455       -0.15630692428521
H           -6.75524491425631       -3.39932422038439       -0.18741120077575
O           -9.54398422177446       -0.58567759846566        0.51998578736893
O          -10.31560200383562       -1.40028080190421       -1.38533134245807
