42
 energy: -62.486133510786 gnorm: 0.000480431328 xtb: 6.7.1 (edcfbbe)
N           -1.27020689990100       -1.00366008844692        0.98496467706372
H           -0.30106720119335       -1.21937500048918        0.78613610386114
H           -1.65858627625219       -1.78759976135156        1.50264875981047
H           -2.37084853732583        0.40991052516966        1.68833910165794
C           -2.02750048012192       -0.80119590174991       -0.24894463834426
H           -1.43879234361188       -0.12725511658816       -0.88523897761393
C           -2.33796209772539       -2.08162459330010       -1.02182657394196
C           -3.29865329171261       -0.05303661569133        0.12802695809396
H           -2.93492852768678       -2.75350445239124       -0.40856799369680
H           -2.90334121578618       -1.84170119391266       -1.91569602532230
H           -1.41601250564518       -2.58510521901020       -1.30639299841507
O           -3.23618435912610        0.62285224508359        1.28397448265162
N           -4.29449364374373       -0.08685284020721       -0.64060703399019
H           -5.66945034197241       -0.63117529722432       -2.25949749999692
C           -5.51503436486035        0.62180595916894       -0.30660558133475
H           -5.57645651645613        0.85332527227826        0.76168247690512
C           -5.60457675883267        1.91561172535010       -1.13167630449592
C           -6.63183677138151       -0.32361559822776       -0.67672845895305
H           -4.81332774565277        2.58672546939487       -0.79123129485013
H           -5.40489875462291        1.67490785966164       -2.17992892794182
C           -6.96140577011566        2.61987442707636       -1.02660750654274
O           -6.54100805104453       -0.86335485162724       -1.90315535684555
H           -7.74281018758918        1.92295961339182       -1.34970442298786
C           -7.26355443278925        3.05355619347969        0.40513425362681
C           -6.97692471245927        3.83042186860921       -1.95862924317227
H           -6.45782006834515        3.67412558523405        0.79176899401354
H           -8.18520639494186        3.62951606246560        0.43433796156067
H           -7.38473366586583        2.19158891618909        1.05474984754257
H           -6.78428115757420        3.53166149266271       -2.98676618414347
H           -7.94500694332890        4.32362972870320       -1.92257632179627
H           -6.21524433500366        4.54778327791364       -1.66015074638608
N           -7.52437271910030       -0.60926331485284        0.16451439694374
H           -8.45558799756238       -0.16670799059512        1.64890174794343
C           -8.59750502360714       -1.52778607143303       -0.15188817779088
H           -8.99001230428290       -1.36408552371601       -1.16340679934511
C           -8.14627827583476       -2.98689369887563       -0.02828396418971
C           -9.72515714755686       -1.27691555836998        0.86039678781046
H           -7.71353260477054       -3.15886162170576        0.95526748851058
H           -9.00476202428526       -3.63958784196901       -0.15931976699057
H           -7.40144611034626       -3.20929380991490       -0.78828598474254
O           -9.38040748608875       -0.45100076405762        1.84095592292534
O          -10.80497521230017       -1.79282932091395        0.77885182603720
