42
 energy: -62.486133531288 gnorm: 0.000477845937 xtb: 6.7.1 (edcfbbe)
N           -1.37481061106087       -1.63808410037514        0.24378454941537
H           -0.43801035966926       -1.79156436659763       -0.10932591485198
H           -1.80271652545757       -2.55077471370987        0.37577995929183
H           -2.34250583099143       -0.66474159294003        1.58328494269079
C           -2.16856102874306       -0.85967264025597       -0.70825231616500
H           -1.55248220902588       -0.00966999316659       -1.02799140619255
C           -2.63738085901609       -1.63613751726757       -1.93584548816082
C           -3.35372415652043       -0.28269603374322        0.05074616979976
H           -3.19941494293870       -2.51492175538589       -1.62765739199925
H           -3.29673956251471       -1.00647555030015       -2.52226773557232
H           -1.78864181505116       -1.94797758102705       -2.54128941851276
O           -3.20760747055094       -0.24904153359322        1.39329694076434
N           -4.35131564740261        0.13183636878055       -0.58645700872301
H           -7.33003606047045        0.64741940449590        1.64584634013587
C           -5.48049879078573        0.71844525160143        0.08722352515636
H           -5.24849849349106        0.96901380287435        1.13584141553700
C           -5.85028650145395        1.98654362364416       -0.70944784435079
C           -6.62954082675136       -0.25895445527079        0.06401307687828
H           -4.95857874636964        2.61577073475314       -0.74787830404198
H           -6.06560560034746        1.65538941243783       -1.72609147483809
C           -7.02498915267854        2.81079554379286       -0.17374568668423
O           -7.58857398247843       -0.06493959832553        1.04831306616494
H           -7.90241156076253        2.16572308026880       -0.05581700766792
C           -6.69655348817440        3.46920113897530        1.16662462654971
C           -7.38573716875414        3.88819119345530       -1.19595190087048
H           -5.86210184466365        4.15728860465877        1.04855750157681
H           -7.55325030463898        4.03218298789741        1.53098491202794
H           -6.42279148959163        2.74235481754248        1.92944105686132
H           -7.67544105567390        3.43586942678005       -2.14086939313940
H           -8.21586074575686        4.49160392264202       -0.83603783932244
H           -6.53569420394322        4.54330464977703       -1.37366392621738
N           -6.67589433393857       -1.16225171730947       -0.79461009909800
H           -9.01065169122552       -0.38532408333540       -0.02269633613612
C           -7.68795902904186       -2.17229770074394       -0.95338453514682
H           -7.29743984515734       -2.85441177840095       -1.71749618182812
C           -7.99966204278124       -2.97062235868021        0.32067608850473
C           -9.00482252810302       -1.60511225164037       -1.50681519864040
H           -8.44982930179835       -2.34216775189722        1.08607333616572
H           -8.68406053445714       -3.78078996027354        0.08128884863715
H           -7.07815460005484       -3.39124847416401        0.71709307566622
O           -9.54837032902421       -0.61089635013951       -0.80534693279878
O           -9.52898598344930       -2.04218615025774       -2.49099500632626
