42
 energy: -62.486133510792 gnorm: 0.000480115504 xtb: 6.7.1 (edcfbbe)
N           -1.91255861273792       -1.57305392270105       -0.97255499063880
H           -1.26136366472311       -2.33108647609485       -0.80754349597893
H           -1.36540095569703       -0.73587020403042       -1.15588417928384
H           -3.51308519926254       -1.22307403278012       -1.98037692295937
C           -2.76976634243484       -1.35759008097772        0.19366865648153
H           -3.14346773172558       -2.34063848302161        0.50882396408078
C           -2.08710953824782       -0.67671406517790        1.37674336791471
C           -3.98397783252762       -0.57367733486798       -0.27805290276696
H           -1.68021764856722        0.28561447994183        1.07194525667182
H           -2.81731136985749       -0.50638043700405        2.16035757989342
H           -1.28034153679254       -1.29823340320175        1.75986430508455
O           -4.23552980455587       -0.68221651061403       -1.60169625395609
N           -4.66057427240100        0.08469804637561        0.54936276716912
H           -6.26087294499684        0.33613951241960       -2.23621754438420
C           -5.86888709114007        0.80192414634293        0.17806227721386
H           -6.30890356084838        1.10185951823688        1.13478488937133
C           -5.54354033804074        2.04896043428999       -0.65387422635513
C           -6.84885830175367       -0.14965093879868       -0.48169584082292
H           -4.82150689905679        2.63823200491453       -0.08357013756611
H           -5.04162761947559        1.74971019432266       -1.58004121336517
C           -6.76191641785231        2.92202837349146       -0.98118304922267
O           -6.95387685956832       -0.19309845449651       -1.82048675378129
H           -7.55409687272555        2.29642533700337       -1.40746711085570
C           -7.31299062375901        3.60256627474101        0.26953166608269
C           -6.36910183999096        3.97467815713357       -2.01778617557948
H           -6.54125481038676        4.20401685579860        0.74568660456043
H           -8.14177760451424        4.25539394581529        0.00536878244602
H           -7.67558541813621        2.87150508484000        0.98719647736974
H           -6.00998090970258        3.50897198365347       -2.93359170493905
H           -7.22350648407410        4.59883151231103       -2.26752160683950
H           -5.58083132694270        4.61444054268536       -1.62628941725103
N           -7.50074346965031       -0.91728323181493        0.27789100305929
H           -8.11517544306977       -1.34275049335918        1.92669960328804
C           -8.39562889274840       -1.92556022625505       -0.24472128425375
H           -9.04507358755806       -1.52626845595171       -1.03397058595076
C           -7.62679982128080       -3.13077429178374       -0.79842140922310
C           -9.27225282620107       -2.40365750100754        0.92195023747704
H           -6.94242446764074       -3.50996158144737       -0.04168047793396
H           -8.33099977727489       -3.91293463480386       -1.06737983058932
H           -7.05785563094553       -2.83628850866030       -1.67664983515633
O           -8.88522022295097       -1.93442965858837        2.10125100253324
O          -10.20434874157286       -3.14580679163266        0.77853736662917
