42
 energy: -62.486133513588 gnorm: 0.000479093037 xtb: 6.7.1 (edcfbbe)
N           -2.24232662701811       -0.92106252156151        1.82832879832950
H           -1.86375145681519       -0.04519492575265        2.17229732317910
H           -1.49779655371591       -1.60783738883729        1.82546021674617
H           -4.08946594361812       -0.91449632286163        2.36276497128615
C           -2.80726780662463       -0.75779530698444        0.49067683449058
H           -2.21660506953493       -0.10935142825951       -0.17061975839156
C           -2.98099534415506       -2.12922662065703       -0.16537914501951
C           -4.19241636547823       -0.15709215756831        0.65272200169981
H           -3.55495064368080       -2.78536415892376        0.48538487416718
H           -3.50839070632380       -2.01681122570354       -1.10773631020545
H           -2.01078958874271       -2.58359501893035       -0.35550515343710
O           -4.77705021083036       -0.45877042331548        1.82856175707675
N           -4.64485305993276        0.58481657628726       -0.25230600616846
H           -8.33957165539816        1.26416921478007       -0.85950269294158
C           -6.00011841098218        1.06550652349582       -0.31992310978377
H           -6.18470454129883        1.74881003738319        0.52822364811429
C           -6.14937291614642        1.84098210211772       -1.64720613283628
C           -7.06021469307922       -0.01128915588062       -0.18504173333940
H           -5.14985293604304        1.91310993170875       -2.07701572660546
H           -6.75399203175052        1.26108818101056       -2.34966048955491
C           -6.72908215889870        3.25474803340793       -1.49739517318012
O           -8.31476640851648        0.35039157402555       -0.54936912222141
H           -7.60512111023081        3.23125146534009       -0.83360631966106
C           -5.69609310598328        4.19600623209050       -0.88245577804061
C           -7.17758952990801        3.78371114217439       -2.85855288634326
H           -4.84384356741436        4.30138916330146       -1.54949802738756
H           -6.12727777913430        5.18044607818779       -0.71485106532623
H           -5.33560850979207        3.81245316821575        0.06871136906126
H           -7.95303598140332        3.15266332731848       -3.28856454102783
H           -7.57256483770621        4.79247788507592       -2.76402382025350
H           -6.33621631544732        3.80823026309675       -3.54701527262547
N           -6.79776416634745       -1.14987982926903        0.27395344561999
H           -5.82061108729411       -2.07809469927637        1.54506519877821
C           -7.80720739941219       -2.17667991058973        0.39241327534687
H           -8.72683007201008       -1.78469581873792        0.84949636975154
C           -8.15798015975600       -2.79388973997843       -0.96417598567000
C           -7.25150967439013       -3.27168648566276        1.31540828488652
H           -7.24757331119045       -3.10218090305256       -1.47431294784797
H           -8.78847721032817       -3.66396767098301       -0.80421418037480
H           -8.68491736952853       -2.07097639042699       -1.58136800826890
O           -6.07268224139761       -2.98517648575965        1.84952164505547
O           -7.83495267326070       -4.29916214914547        1.52924377478254
