42
 energy: -62.486133513995 gnorm: 0.000479844120 xtb: 6.7.1 (edcfbbe)
N           -0.89487455020521       -1.26190176307335        0.05926884495851
H           -0.00388815931507       -0.95522198760544       -0.30722717318007
H           -1.08017705265934       -2.18354128816090       -0.32166556571825
H           -1.81258927392714       -1.48192062649265        1.68547407403741
C           -1.97074381078408       -0.34175111165749       -0.30400075372942
H           -1.59315081773825        0.67949869461760       -0.20213965579577
C           -2.50232844450691       -0.54523682290911       -1.72015433446687
C           -3.10591796099201       -0.49613423433872        0.73733605167644
H           -2.88034680921296       -1.55897120577600       -1.84163030954998
H           -3.30645315860589        0.15567988953442       -1.92163739451133
H           -1.70969038139757       -0.38411368551241       -2.44848819276772
O           -2.75228814632222       -1.23900311290762        1.81290372882033
N           -4.21480179731221        0.03009123278881        0.66318011996688
H           -4.85720374878969       -1.72635145588878       -0.26825898707698
C           -5.51373749060206        0.49341245017895        0.43765837164089
H           -5.91661454720834        0.91885386744600        1.36820705400862
C           -5.54616140498152        1.58244358999316       -0.66229673127677
C           -6.41402072017759       -0.67703939620173        0.05230765066121
H           -4.80427035652311        2.33463979983742       -0.38937453697197
H           -5.23032062333262        1.13444566862949       -1.60765070689210
C           -6.89672412712251        2.27352512267869       -0.88933195331852
O           -5.82515752935023       -1.80425221859611       -0.37166748539996
H           -7.62803145983604        1.51492424539758       -1.18060413938658
C           -7.40335996660029        2.99204152074839        0.35840427266091
C           -6.76226813811227        3.27630604039023       -2.03609509341427
H           -6.67536107657016        3.72824733858001        0.69592998214923
H           -8.33346619334447        3.50996261947308        0.13191627251467
H           -7.59609479646957        2.29439537008692        1.16938595740722
H           -6.41812636681814        2.78784196248807       -2.94461814190471
H           -7.72267382371140        3.74076743040691       -2.24291803536240
H           -6.05331464397672        4.06024837982582       -1.77653899660808
N           -7.66370133723556       -0.52825966273219        0.12198913290739
H           -9.15386897010895        0.55239048983193        0.31078397328649
C           -8.57130455737440       -1.58258384029697       -0.26913735118438
H           -8.24974463605788       -2.07134630141791       -1.19613092623987
C           -8.71960888560034       -2.65553442773240        0.81562358162206
C           -9.94682246579725       -0.94059903152905       -0.49484710088202
H           -9.02744022847410       -2.20313040314192        1.75486410958613
H           -9.47583008523435       -3.37053114160820        0.50252914437798
H           -7.77309697161585       -3.17130558174712        0.96440383292405
O          -10.03680954652105        0.30242397929436       -0.03714927977445
O          -10.86380529149581       -1.51545235592338       -1.00968311764898
