42
 energy: -62.486133510445 gnorm: 0.000479610358 xtb: 6.7.1 (edcfbbe)
N           -1.32966620901564       -1.33593743750842        0.37636206733175
H           -0.80180703033649       -0.49320571624452        0.58037784549344
H           -0.67110756466800       -2.05267922777169        0.09437280115167
H           -2.90646788966501       -1.15208133868381        1.53645412032853
C           -2.30393474647747       -1.08678369580252       -0.68655646080298
H           -1.91745630029297       -0.48103337927266       -1.51712828232596
C           -2.82388427181068       -2.41648774310314       -1.23536606753010
C           -3.47212685099972       -0.35292361354076       -0.06410107285468
H           -3.19016804630222       -3.03835658366995       -0.42102507851343
H           -3.63732428482018       -2.22594593312917       -1.92890656691552
H           -2.02977525222045       -2.94998763348087       -1.75325038208789
O           -3.66793426334794       -0.60972644464539        1.24873839334505
N           -4.19664201861683        0.39411958452644       -0.76661199211891
H           -6.33124716993526        0.42721851712234        2.00555775966669
C           -5.35190697935863        1.02327545979943       -0.15964450626914
H           -5.06338815075935        1.50341698578906        0.78815670012006
C           -5.89825054748839        2.05929504229653       -1.14902375691190
C           -6.40400394343218       -0.02727212099370        0.11361941070457
H           -5.10650283020403        2.77960909608850       -1.36011469123388
H           -6.11820887276410        1.51593387543534       -2.06762158099210
C           -7.15584140268727        2.78865230289989       -0.66673077178062
O           -6.87937090330663       -0.09714552650971        1.40936314759118
H           -7.89744551883498        2.04512066826632       -0.35326174775871
C           -6.86125850229406        3.71851643586052        0.50954950718244
C           -7.75203318574176        3.58999575644253       -1.82198803231818
H           -6.10510064003084        4.44990321677608        0.23136691884256
H           -7.76277951850325        4.25245968305526        0.80127706023004
H           -6.50360572368592        3.17048636749569        1.37835030603081
H           -8.01026307517660        2.93186558394667       -2.64738342286450
H           -8.65316998312703        4.10783804266988       -1.50203406323074
H           -7.03799192803539        4.32903132209135       -2.17920124729488
N           -6.77382466604158       -0.77505016822751       -0.81631669482460
H           -8.61241203383479       -0.37536065149049        0.95465317285028
C           -7.73007785786807       -1.84788639882071       -0.74446389713040
H           -7.66680242095714       -2.35631460849996       -1.71361485798139
C           -7.46534745411577       -2.86539653497979        0.37411392349501
C           -9.17337017743843       -1.33662815637663       -0.61385617668735
H           -7.57659372937665       -2.41582405135242        1.35836183054617
H           -8.16381691816800       -3.69347341629154        0.28247082588172
H           -6.45048762816397       -3.24569272960558        0.28030107209392
O           -9.41272733791806       -0.52826356068002        0.41858716027097
O          -10.04006742565379       -1.65930691507088       -1.37489746133173
