42
 energy: -62.486133504040 gnorm: 0.000481058508 xtb: 6.7.1 (edcfbbe)
N           -0.89368317652708       -0.99143515363315        0.23774798142873
H           -0.48635745424035       -0.14629915029028        0.62428710982819
H           -0.14722040300555       -1.53673424598773       -0.17751572025560
H           -2.36141488147487       -1.34261902145552        1.37902475208713
C           -1.91582806215974       -0.66731853032635       -0.75727909323345
H           -1.67493748236725        0.20803199868080       -1.37437001880914
C           -2.15957681423258       -1.86888671584786       -1.67123321125805
C           -3.20018024388973       -0.37815761011316       -0.00133341412132
H           -2.40456385421920       -2.74930077802757       -1.08028053574142
H           -2.98543308960224       -1.65162120196577       -2.34199731380987
H           -1.27135068637356       -2.07993652368744       -2.26282480074789
O           -3.25221335519590       -0.95566092616831        1.23111476758903
N           -4.08100578886139        0.33683304308044       -0.52740257110610
H           -4.99751270356461       -1.45806682170726        1.27003516692742
C           -5.36785655088691        0.64338490212407        0.06649914358957
H           -5.22399001676393        0.95834570127866        1.11455038344018
C           -5.97519328531425        1.78591742215373       -0.74989712018419
C           -6.25911316561339       -0.58355709255019        0.11079130258318
H           -5.18950589163612        2.52620805155596       -0.90904829032044
H           -6.25061530148876        1.38174168945403       -1.72338703485825
C           -7.18765487602753        2.45781222726107       -0.09696687637649
O           -5.87751603531987       -1.61240871475615        0.88545840869714
H           -7.85312509576573        1.67926231214550        0.28661001856550
C           -6.76739057801399        3.35987599793568        1.06221295496112
C           -7.94603632835091        3.27651479305467       -1.14008608085178
H           -6.10813686487031        4.14961016502025        0.70736466140623
H           -7.64034230646531        3.82256627278213        1.51688279208811
H           -6.24582554518939        2.79890749661973        1.83384250743325
H           -8.30736703481978        2.64138826665190       -1.94506912193610
H           -8.80135694459440        3.77226658787939       -0.68697884757415
H           -7.29646545067732        4.03771898461764       -1.56723769582503
N           -7.32823830903016       -0.59185903206918       -0.55583951435400
H           -8.35262543238947        0.12634174214850       -1.84889099806061
C           -8.23239412283433       -1.71739011818863       -0.55306921964739
H           -7.70127442957311       -2.67425938558509       -0.63307094663679
C           -9.10350556091919       -1.73904110160321        0.70846477390181
C           -9.15542960688219       -1.55090381331089       -1.77007937389858
H           -9.61595575975477       -0.78561989444391        0.82273867183518
H           -9.84191659927689       -2.53103144511226        0.62144312392141
H           -8.48333858415283       -1.91649062314128        1.58354484979184
O           -9.05995401346365       -0.35663596558372       -2.34107552919616
O           -9.90278957714547       -2.40951964068383       -2.14874494585458
