42
 energy: -62.486133510953 gnorm: 0.000480088304 xtb: 6.7.1 (edcfbbe)
N           -1.32798322927535       -1.23039215675944        0.99961159665411
H           -0.93571254117811       -0.40396105708002        1.43762794397961
H           -0.57125990713423       -1.87950757576410        0.82225217225523
H           -3.10221311505964       -1.28507227677415        1.75837774154029
C           -2.02141359227314       -0.88367081374870       -0.23909368468550
H           -1.51692795559419       -0.10444966856260       -0.82759524591322
C           -2.19004388034870       -2.13295578756888       -1.10587148384498
C           -3.39896459908400       -0.37370010418478        0.15196939645471
H           -2.73925517815023       -2.89760670309397       -0.56065512866742
H           -2.73327109980253       -1.88443129848686       -2.01267240009041
H           -1.21673575993369       -2.53261886736265       -1.38317629145577
O           -3.83993842805409       -0.78943665137207        1.34483984883383
N           -4.03631982637612        0.36974878661484       -0.64191157651873
H           -5.13772921433407       -0.83551504316706       -1.97616716138531
C           -5.38256462571756        0.79769526210464       -0.29967097503446
H           -5.46695233107841        1.03522162395597        0.76583525274748
C           -5.71350137926452        2.02808733048958       -1.15941419933758
C           -6.34173693923616       -0.32697372135885       -0.61080632489523
H           -4.95267220984870        2.78428044793201       -0.95751933452745
H           -5.61698332003956        1.73947842911009       -2.20902850290786
C           -7.10529405677157        2.62047596437414       -0.92207943268965
O           -5.99682157592246       -1.13135078176415       -1.63416561908757
H           -7.85091837160862        1.83072373245432       -1.05688996187758
C           -7.24958037654925        3.18616698719997        0.48832672675077
C           -7.37094976141318        3.71672833186228       -1.95303792987830
H           -6.50721349431658        3.96248113049863        0.66328437956616
H           -8.23768531777516        3.62108247558879        0.61631805801660
H           -7.12460311927090        2.40955875202827        1.23746278734107
H           -7.30855340712636        3.32096435037591       -2.96417659508547
H           -8.36367117335380        4.13645991079413       -1.81169312611511
H           -6.64167551215226        4.51795917801140       -1.85205157732588
N           -7.41303262711088       -0.43348119155519        0.04112125694557
H           -8.68611317359064        0.36523657084506        1.06055153980557
C           -8.38729006022911       -1.45891794323115       -0.25732231128012
H           -8.50195269815078       -1.61651705784117       -1.33767530589998
C           -8.01314700628564       -2.79117346716033        0.40057931401286
C           -9.73171710205817       -0.98948584855992        0.31858185923726
H           -7.83901910153097       -2.64189989119725        1.46420910422487
H           -8.82594740053220       -3.49932433797294        0.26632603913419
H           -7.10822104728165       -3.18641590159161       -0.05437707935682
O           -9.63439027477229        0.09498850720516        1.07757569259065
O          -10.76621546811260       -1.56050543228438        0.11113559818941
