42
 energy: -62.486133515452 gnorm: 0.000480373105 xtb: 6.7.1 (edcfbbe)
N           -1.15564398160632       -0.65469566082195        0.08806578710470
H           -0.42527942860010       -1.31895519836057       -0.13845469851806
H           -1.09199965404768       -0.46087283048050        1.08408853313345
H           -1.89706720174690        0.99328598248233       -0.54331668936360
C           -2.47569274588318       -1.20338743215506       -0.22237633301478
H           -2.42300666102418       -1.61937901189910       -1.23748760851157
C           -2.96395281402272       -2.28354061092996        0.73930192736152
C           -3.44933564869713       -0.02947518945706       -0.28404489942322
H           -2.97960704206330       -1.89841744804048        1.75712820840089
H           -3.97446417421464       -2.57196033405421        0.47039677596116
H           -2.31291165378649       -3.15446981876122        0.69804140862539
O           -2.86265239241635        1.15769097039816       -0.53890586015869
N           -4.66886303840263       -0.25912171365761       -0.11407601013478
H           -6.68215222378056        0.46513122301534       -2.42728708287102
C           -5.75812322097456        0.68860675774188       -0.15361001508323
H           -5.96561392779417        0.94444691165297        0.89270665742645
C           -5.55433188513448        1.97560702324403       -0.96367937641075
C           -6.93230884277433       -0.15152196166769       -0.63037802614604
H           -4.72126712200101        2.52544962339457       -0.52496241726774
H           -5.25039625243750        1.72362912250317       -1.98644382047314
C           -6.79048991766456        2.88630706244892       -0.98925258146103
O           -7.24202584990167       -0.15348518973361       -1.94171255036677
H           -7.67388840763178        2.30660819786018       -1.28117824304051
C           -7.05980625405598        3.49393440432272        0.38580840171623
C           -6.58291342401115        3.99761778265665       -2.01808743146942
H           -6.18956995428889        4.04728921870649        0.73366174987848
H           -7.90279911881710        4.17919492610101        0.33332344996365
H           -7.29810025799228        2.72420885726578        1.11565439573662
H           -6.43102546497516        3.58724837397706       -3.01468643840185
H           -7.44995908937065        4.65280194094682       -2.05003203097214
H           -5.71133601057227        4.59427087130633       -1.75746614854761
N           -7.50870370661905       -0.89287571952041        0.20725339222084
H           -7.80808154236653       -1.38327988306981        1.91759826166800
C           -8.56725140818930       -1.80282756476841       -0.16628080847822
H           -9.30431725848126       -1.32747898965922       -0.82545712158649
C           -8.01993314185542       -3.05669566744786       -0.85812950063971
C           -9.26335785291013       -2.23798135179507        1.13219403159640
H           -7.25862197536585       -3.51988141464939       -0.23394719527624
H           -8.83083681090637       -3.76200948412328       -1.01696896181768
H           -7.57854545206531       -2.78916633284949       -1.81453998625575
O           -8.59330027129963       -1.89644997478939        2.22578827711363
O          -10.29665817145938       -2.84742629495866        1.15068570040162
