42
 energy: -62.486133514735 gnorm: 0.000479716464 xtb: 6.7.1 (edcfbbe)
N           -1.83226927199273       -0.18264744246268        0.79871331899034
H           -1.10254399167841       -0.64622988131328        1.33013060705343
H           -2.39436509818741        0.36791946485613        1.43942553604600
H           -3.88562666951057       -1.45252413279002       -1.94047932280312
C           -2.69088896798167       -1.16731602254797        0.16456729890246
H           -2.15573026886148       -1.54567536650928       -0.72014046538576
C           -3.05791398598137       -2.35561841933552        1.07183428831641
C           -3.97169088092609       -0.48833859601786       -0.27081291011538
H           -3.61134354940620       -1.99172326859257        1.93408379328341
H           -3.67239076274059       -3.08092274565197        0.54498419783105
H           -2.15135274760520       -2.85233067802395        1.41274447298769
O           -4.46515545643508       -0.82497108327750       -1.48908661359433
N           -4.53028149842267        0.28219899511057        0.54608036587062
H           -8.05709167186894        1.69027291441446        0.62935974772140
C           -5.73430025561396        1.03363795844597        0.30338295881521
H           -5.81496017372049        1.71637324907609        1.16106878521628
C           -5.63674649748705        1.85071230751655       -1.00449720437469
C           -6.95655746555940        0.14061985699229        0.31143685976785
H           -4.64519980005424        2.31072744731788       -1.00896997669673
H           -5.67998208010653        1.14837669747107       -1.83818879613016
C           -6.68647687520889        2.94611851147168       -1.22333033635783
O           -8.15449092671106        0.73805828788670        0.50580399195374
H           -7.68648088133773        2.49856883677946       -1.25486858538570
C           -6.64248664632088        4.02276823039324       -0.13902706924094
C           -6.43798795686405        3.59177685129817       -2.58747525355284
H           -5.65211015545535        4.47099354091020       -0.09992564835057
H           -7.36270150537945        4.80738148208966       -0.36096442428496
H           -6.87202509777518        3.63082760633717        0.85033962739620
H           -6.48811199792009        2.84857478545583       -3.37955886877081
H           -7.18434288720788        4.35692785334072       -2.78819729843400
H           -5.45470128983920        4.05602899521184       -2.61387540154338
N           -6.81267626474178       -1.10406383554773        0.22936121259677
H           -5.76706240098507       -2.38848900649417       -0.38482378564591
C           -7.88663979744745       -2.06534985905325        0.24995591136873
H           -8.40983246374605       -2.04979905789421        1.21328778121802
C           -8.90785466082935       -1.87240950834579       -0.87731097762868
C           -7.22796721425661       -3.44233113265937        0.05847558325719
H           -8.39474503232987       -1.82003416923376       -1.83604833088936
H           -9.59241150925985       -2.71617175545424       -0.88591808775370
H           -9.46789309006377       -0.95425647759147       -0.72357381789287
O           -5.97322828744322       -3.35844159917269       -0.37155392082510
O           -7.79757322573603       -4.48124555255851        0.24252579800086
