42
 energy: -62.486133510675 gnorm: 0.000480141023 xtb: 6.7.1 (edcfbbe)
N           -1.13504314034278       -1.29501949150930        0.20203327341162
H           -0.23059369302878       -1.43770836062432       -0.23135370794665
H           -1.43747703979826       -2.19126205276976        0.57554990542758
H           -2.03992881002368       -0.11893733425153        1.41884668569882
C           -2.11302326968982       -0.81683154712931       -0.77706394670652
H           -1.63635649981293       -0.00864246308154       -1.34644936043858
C           -2.62677073087432       -1.88106364258184       -1.74338991901087
C           -3.26155834117295       -0.18704584523605       -0.00303600049928
H           -3.03776030609637       -2.72170213211878       -1.18754788882850
H           -3.42109547776804       -1.45637781668984       -2.34748026691764
H           -1.82356011251341       -2.23717437509857       -2.38533580180004
O           -2.96042333498972        0.17378931639700        1.26429359177045
N           -4.36984317624964       -0.02728711578857       -0.56782059548947
H           -7.16084775450407        0.32486811610996        1.82312918716238
C           -5.47538337918868        0.59933008037576        0.10654977399761
H           -5.23878343451120        0.82517957680641        1.15984408407875
C           -5.80669220661370        1.89707767029031       -0.65714081317664
C           -6.66531893573078       -0.32716942841582        0.04908786876113
H           -4.91057210372875        2.52127695435486       -0.65980233937859
H           -6.01512831617215        1.60037773788539       -1.68567976861510
C           -6.98574850703707        2.70006235888090       -0.09819816253798
O           -7.50542525493897       -0.27929992882276        1.15398203360406
H           -7.84649337240060        2.03563371788556        0.03469794943030
C           -6.64383131152267        3.35340694556819        1.24081704992483
C           -7.38662491672674        3.77558014698920       -1.10648411981692
H           -5.82879416076769        4.06261265433787        1.11266558820422
H           -7.50568636012096        3.89077805462730        1.63028792990003
H           -6.33693330041965        2.62336299752952        1.98719721305396
H           -7.69475636942204        3.32173022872716       -2.04481537009180
H           -8.21548558667993        4.36607533095022       -0.72321238627084
H           -6.55021975926976        4.44279692304596       -1.30335116090987
N           -6.85187183849195       -1.05425758119365       -0.94607367700424
H           -9.05239027152507       -0.36698904074232        0.21704698338171
C           -7.92557573207381       -1.98588788947549       -1.16588928097124
H           -7.65371332351133       -2.53104551703719       -2.07711304693347
C           -8.14318067071654       -2.99086380990798       -0.02583316977693
C           -9.25965574226525       -1.28138129643728       -1.45949874463251
H           -8.46784238474403       -2.49616492241400        0.88706452539147
H           -8.89682327294666       -3.71655923459618       -0.32167844098353
H           -7.21009865744738       -3.51194906640067        0.17637825816599
O           -9.67708693911971       -0.42066129354846       -0.53089165518729
O           -9.90179345050072       -1.50468382511790       -2.44539724958331
