42
 energy: -62.486133508744 gnorm: 0.000480426768 xtb: 6.7.1 (edcfbbe)
N           -2.27756336989184       -0.30295312711660       -1.84893277667541
H           -2.30502959978249        0.67472918422889       -2.11959335705188
H           -2.28759827650379       -0.86097403464305       -2.69534642342952
H           -1.35723671414789       -0.34496937707440       -0.13803318867401
C           -3.42085406406942       -0.63825482683539       -0.99849993143286
H           -4.37626552061604       -0.26130550167837       -1.38585910069399
C           -3.49025843793374       -2.16134391539780       -0.86055093557983
C           -3.12130218208961       -0.02486088584053        0.37523884407306
H           -2.52686503571687       -2.54862719369910       -0.53438642735100
H           -4.24430394802034       -2.45458638709047       -0.13679679299281
H           -3.74277709922125       -2.61049106280363       -1.81906006945520
O           -1.82403273984122       -0.07753577926687        0.68176001350183
N           -3.89371085171589        0.49428315116248        1.22709689749995
H           -5.27535954303763       -1.41363279389418        2.23162679779208
C           -5.32204818680437        0.68130491440814        1.10406279034066
H           -5.65753140025513        0.90820173760820        2.12741107396935
C           -5.64007307251897        1.88679166619000        0.20809753581751
C           -6.01985049891051       -0.58653899057091        0.67125946939426
H           -4.96414057333239        2.69452119086365        0.49553550132130
H           -5.41981325137643        1.61782501442880       -0.82563016427540
C           -7.09078270423630        2.37299565173254        0.30697325697113
O           -5.86495214681022       -1.64402061361252        1.50048987364957
H           -7.75184838600263        1.50189132272752        0.27224825403692
C           -7.34003707332946        3.12999605232227        1.60936168276152
C           -7.41023385133014        3.27450225481503       -0.88477804952957
H           -6.69262844859292        4.00214315495614        1.66975797655474
H           -8.37296381985992        3.46675540573594        1.65710877297579
H           -7.15081033843874        2.50248504157818        2.47634120892637
H           -7.28912072238147        2.73855034745549       -1.82347980933335
H           -8.43541009792294        3.63176303234650       -0.82710917289272
H           -6.74787510635176        4.13759009284932       -0.89318163985101
N           -6.65606546559914       -0.64280759603107       -0.41208534740517
H           -7.06281965497623        0.08517061057799       -2.04354618335096
C           -7.27368723165682       -1.85251020199799       -0.90079269973899
H           -6.71272399304259       -2.75553482026041       -0.63162510341455
C           -8.71060394922277       -1.98402192509492       -0.38337347966619
C           -7.32643525850152       -1.72147705876421       -2.42969013005368
H           -9.28116466085478       -1.09045718390178       -0.62943703616429
H           -9.18306518368394       -2.84691513478757       -0.84418392435086
H           -8.70167611343624       -2.11217273920425        0.69642138231850
O           -7.21745440744172       -0.46328200544652       -2.84726629218146
O           -7.46722163489116       -2.65338262066924       -3.16959574582551
