42
 energy: -62.486133509907 gnorm: 0.000480385772 xtb: 6.7.1 (edcfbbe)
N           -1.00237366103395       -1.04079630486912        0.67681520314789
H           -0.01739107020815       -1.05319905469732        0.44268659019531
H           -1.26777930597693       -1.98773020390787        0.93527360988263
H           -2.23525863351298       -0.04073668078221        1.75132300171706
C           -1.80949698280757       -0.58417460223953       -0.45309796653424
H           -1.31285578543388        0.29642009347275       -0.87925057961752
C           -2.01421977499989       -1.62376935967759       -1.55459921961831
C           -3.13890536134727       -0.09773992979394        0.11031085719112
H           -2.46035354228812       -2.52810258892652       -1.14334371085900
H           -2.67602298321627       -1.22052600312162       -2.31414331249547
H           -1.06212424858347       -1.88341774822843       -2.01250407351569
O           -3.12951562391095        0.18346417763250        1.42093778830619
N           -4.12265370823335        0.04917117840873       -0.66432519548053
H           -4.89087706325681       -1.73600799844950       -0.68436715904098
C           -5.40880748248328        0.50701092410695       -0.17220704796651
H           -5.35857303056624        0.79660485696817        0.88687723619365
C           -5.76246785398333        1.73279201877929       -1.03223651063111
C           -6.38271738176989       -0.65303214070301       -0.28137259721391
H           -4.96958331851120        2.46495319596106       -0.85609882643468
H           -5.69723912628912        1.42508446125283       -2.07762953661941
C           -7.11650254145489        2.40329924128646       -0.79072598549250
O           -5.82921388230387       -1.86857903250819       -0.46019844546122
H           -7.89864944520718        1.74341614695368       -1.17028083035828
C           -7.37051011131163        2.67818565735592        0.68850499119411
C           -7.17252973435791        3.70848722374175       -1.58436555944242
H           -6.57005187052578        3.28615943406895        1.10576791756005
H           -8.30748076510387        3.21595384042054        0.81308169097753
H           -7.43193079780530        1.74935918150511        1.24883552155424
H           -6.98114576353684        3.52634090700797       -2.63917560807717
H           -8.15448392721225        4.16503092908207       -1.48905021734876
H           -6.42929988701903        4.41340252793589       -1.21681203690700
N           -7.62891671096074       -0.46534218911975       -0.26849124971626
H           -9.15913626986211        0.58865148910510       -0.05012970599291
C           -8.54426892608899       -1.58001663744398       -0.39016347672063
H           -8.27434955096462       -2.23549008610183       -1.22745240564548
C           -8.60182910222198       -2.41814312360660        0.89372878855752
C           -9.94566114677310       -1.00587737064653       -0.62866708694827
H           -8.84182959431179       -1.78155909330064        1.74355183944396
H           -9.36919070266419       -3.18050565433218        0.79218630965590
H           -7.64040261828883       -2.89447375584375        1.06714852683373
O          -10.05637796744461        0.27708908047816       -0.30331164293028
O          -10.86321400630197       -1.66368285984982       -1.03409483546503
