42
 energy: -62.486133503463 gnorm: 0.000481650406 xtb: 6.7.1 (edcfbbe)
N           -1.74584728037359       -1.10412855038406       -0.24144127730384
H           -1.14074857802290       -1.90189606619781       -0.08886639269339
H           -1.27324700377225       -0.28629396361256        0.13460336791263
H           -2.81798199382302       -0.36970176187508       -1.65073481147364
C           -3.03146316247376       -1.28660684735109        0.43396391538474
H           -3.38401718773623       -2.29781194707818        0.19360702455800
C           -2.98853555163100       -1.12144203640557        1.94993279866748
C           -4.02336496955755       -0.32536961617217       -0.21400019827612
H           -2.62018917704119       -0.13088888832795        2.20974429235993
H           -3.98982122248192       -1.23116382382668        2.35074091580643
H           -2.33774722080704       -1.87114376988959        2.39499725938827
O           -3.69665228935952        0.02579047477486       -1.47424800645767
N           -5.04057708646563        0.00752365554524        0.43664526997404
H           -8.22218045994909        1.28104683195872       -1.23666051692187
C           -6.13010428998374        0.83532631565477       -0.00867221561309
H           -6.41073799341424        1.41579483472570        0.88473642072052
C           -5.88232014421865        1.81412286612464       -1.17483786930432
C           -7.29640601133643       -0.10315639598941       -0.27444926277442
H           -4.81160413034217        2.00177813446695       -1.24279361284805
H           -6.17435574922359        1.34195827532001       -2.11693038848595
C           -6.59003066719295        3.16891396282013       -1.00226991531180
O           -8.36514625935019        0.37020020998120       -0.94923467418684
H           -7.59103841654480        3.02613759836875       -0.57206692469129
C           -5.80241692623429        4.06196622361668       -0.04500940611103
C           -6.74402316871311        3.85900643106161       -2.35675336830044
H           -4.83024933320328        4.30191277351277       -0.47013029232871
H           -6.33617343496506        4.99227039135358        0.13661991188647
H           -5.64476468738938        3.56599334845080        0.90989198130853
H           -7.35073762153708        3.26303855789389       -3.03620376820176
H           -7.21953714770220        4.82998851649414       -2.23820741999081
H           -5.76868897001080        4.00889544186588       -2.81403050203878
N           -7.22467647268858       -1.27551429556804        0.16939025161987
H           -6.31571520309278       -2.40421238881426        1.18645815966249
C           -8.24937782215973       -2.27564409470338        0.01508681429130
H           -9.22409197721902       -1.91358302462853        0.36702631857882
C           -8.39508095581248       -2.75822600094752       -1.43159779320147
C           -7.82211552896373       -3.46437521259722        0.89650217137705
H           -7.42396849531279       -3.05977839333072       -1.81949107932746
H           -9.06841047940985       -3.61039653077550       -1.45655947125359
H           -8.79444049735000       -1.96146093883935       -2.05360844913779
O           -6.63129238164882       -3.30385206580499        1.45775545614651
O           -8.49631332043206       -4.44704385976241        1.04003007695929
