42
 energy: -62.486133508141 gnorm: 0.000480835465 xtb: 6.7.1 (edcfbbe)
N           -1.69773259592784       -1.04800993640193       -1.86365502144513
H           -1.05363201632178       -1.79973095944955       -2.07727528973066
H           -1.14642309530175       -0.21435332251957       -1.67822087505697
H           -3.32098167438770       -0.25209370197757       -2.52913899537742
C           -2.51246349194504       -1.37314359268636       -0.69413064312080
H           -2.90196749986162       -2.38862625099599       -0.84213057681477
C           -1.76692531848094       -1.30988633578548        0.63690157095509
C           -3.72523563955093       -0.44491351947811       -0.70929045116824
H           -1.35461324822235       -0.31410316717250        0.78743527794800
H           -2.45854841517997       -1.51868184031717        1.44540417285713
H           -0.95652938417206       -2.03632044125466        0.65542330531061
O           -4.00949982970002        0.06746741061497       -1.91142980454537
N           -4.34492484541107       -0.26512428284236        0.36982388135121
H           -7.23844970085182       -0.17612337075417        2.14293930241460
C           -5.55089348016293        0.51614689439529        0.51657482540049
H           -5.54961150450962        0.82008784663359        1.57431630709959
C           -5.68093068844176        1.76317461678883       -0.37130583274100
C           -6.73205751556597       -0.39908016740634        0.27402248601919
H           -4.75648224802704        2.33949959431566       -0.29651934176826
H           -5.79294114176627        1.42282029710640       -1.39952739872343
C           -6.87455221868136        2.64898703260087        0.00490971247702
O           -7.57989287965745       -0.60320031339629        1.34784115792221
H           -7.75806505263493        2.01424226283014        0.14074878554982
C           -6.62300553625873        3.43087870181493        1.29345895391036
C           -7.16713954078035        3.61973636680132       -1.13745031611065
H           -5.76978445177990        4.09441443961448        1.16821262511021
H           -7.49190754120994        4.03569994950306        1.54341110595025
H           -6.41917816908393        2.77223916600471        2.13492998926509
H           -7.41404690288805        3.07528342847049       -2.04519397139777
H           -8.00597677542095        4.26453938800872       -0.88537804549480
H           -6.29888379340107        4.24497276210004       -1.33463099972112
N           -6.88236958257958       -0.91567200720634       -0.85248457392601
H           -9.11854716201520       -0.55048287648930        0.38406017072414
C           -7.91500924171328       -1.82551928406245       -1.27168755470164
H           -7.61207400770360       -2.16722455749918       -2.26827078672841
C           -8.10091079598454       -3.04380395037897       -0.35666738444998
C           -9.27251806430465       -1.12622853230763       -1.44335771400151
H           -8.46898820616165       -2.75424018970399        0.62520555755696
H           -8.80929005752473       -3.73230240039711       -0.81075962690508
H           -7.14541932705465       -3.54855136952698       -0.23183700549529
O           -9.73264152915207       -0.48179256573301       -0.37097377446205
O           -9.89514710265396       -1.17300697802057       -2.46536801366002
