42
 energy: -62.486132536434 gnorm: 0.000652540351 xtb: 6.7.1 (edcfbbe)
N           -0.84687460930604       -0.13164770184178       -0.95106472597085
H           -0.16148526228808       -0.49383990303292       -1.60217436288224
H           -0.47459723923981       -0.25446768051405       -0.01354734199960
H           -1.93040512447214        1.42247405394666       -0.72571858794551
C           -2.11990147523612       -0.83964889102925       -1.07907989679803
H           -2.33852248840489       -0.93110746425797       -2.15048632962319
C           -2.14572248900360       -2.22750130875951       -0.44319669253598
C           -3.20310332149572        0.06533815675683       -0.50004778687923
H           -1.90420932812810       -2.16003054936128        0.61614250080613
H           -3.13933687769687       -2.65016104051581       -0.54549018466872
H           -1.42458790126492       -2.88193458169305       -0.92853215784272
O           -2.86248589917985        1.36245624775705       -0.42841724841480
N           -4.29543163444971       -0.44838687001919       -0.15542891304307
H           -5.57300793844598       -1.69511206170734        1.68239449792031
C           -5.43862374144032        0.28525004565999        0.35596328468668
H           -5.23805497224004        0.56707356977668        1.40037445131869
C           -5.80873836847182        1.53511233124452       -0.45066157370156
C           -6.53897951921772       -0.75691595526779        0.33174082900741
H           -4.94876022761458        2.20451434619705       -0.46539171989240
H           -6.00958559316737        1.21527073319408       -1.47426220540453
C           -7.02175710434877        2.29400049928171        0.09834483931131
O           -6.43289906127489       -1.74454697850847        1.24643624076678
H           -7.83333040606183        1.58187070435084        0.27374398194613
C           -6.69450018297810        3.00037967798557        1.41257470869961
C           -7.48922353035107        3.31583650908419       -0.93675054372899
H           -5.85969735472028        3.68523767968460        1.27748330790425
H           -7.55353425056309        3.57187638286165        1.75686683023711
H           -6.43378084975999        2.28896934919538        2.19243931850230
H           -7.77389402708928        2.82370517472413       -1.86346942038197
H           -8.34920710558429        3.86841058183233       -0.56562502903498
H           -6.69368362288685        4.02574227463350       -1.15350418846544
N           -7.41777106827230       -0.74298151755193       -0.56672236418116
H           -8.05628322906008       -0.05355978471224       -2.09932767538964
C           -8.42363565896672       -1.77237536435214       -0.68235806087691
H           -7.99147443449506       -2.77699041111909       -0.59262113702443
C           -9.52579334391521       -1.61240704754807        0.37079330434214
C           -9.05928791057335       -1.62077190182948       -2.07315226476704
H           -9.94462554339803       -0.60897614253490        0.32160367890985
H          -10.31348246019252       -2.33535248237515        0.17882420712938
H           -9.11526191388268       -1.77833609039517        1.36356632971667
O           -8.70464110107808       -0.50230537545535       -2.69369851642844
O           -9.81601308713429       -2.42618705486794       -2.53962827702648
