42
 energy: -62.486133512781 gnorm: 0.000479357869 xtb: 6.7.1 (edcfbbe)
N           -0.88662518034573       -0.08963767117234       -1.17807007744862
H           -0.17518549008933       -0.57610299269771       -1.70962576718492
H           -0.49800967167857        0.11916993239200       -0.26260466643336
H           -2.12953982117884        1.34809260110574       -1.41371279771468
C           -2.08796603550576       -0.90940067834168       -1.03454934163098
H           -2.32795252653530       -1.30855861316029       -2.02878996242764
C           -1.95219562424430       -2.06921527688489       -0.05020206737317
C           -3.23307993591205        0.03201859324555       -0.66377814904112
H           -1.77519360652627       -1.69173101804244        0.95482685748553
H           -2.86412392763371       -2.65640032510046       -0.04539865084123
H           -1.12172216756721       -2.71095587809996       -0.33852328456658
O           -3.03216979694106        1.30484800909665       -1.03538716496426
N           -4.23098134257279       -0.45016869909580       -0.07567161261276
H           -5.24667235093362       -2.01923393149044        0.88466896787336
C           -5.45547176182766        0.22075029608712        0.31217601871199
H           -5.38157648069831        0.39136380111692        1.39705829191845
C           -5.81544603120157        1.53210775020213       -0.38884147200174
C           -6.50071310070892       -0.86201198857778        0.09940056073606
H           -4.95152471037095        2.19515577987450       -0.36593560960408
H           -6.03721479136863        1.30314331462800       -1.43228920008770
C           -7.00859536146120        2.25495135202262        0.24953063454895
O           -6.18577331878364       -2.05341540083079        0.63967286047351
H           -7.79385506736712        1.52328421138980        0.45839002331639
C           -6.61029776995379        2.93423303453200        1.55874525219811
C           -7.55738699722485        3.29617116214975       -0.72436039276124
H           -5.82959491799237        3.67133814934973        1.38113298396547
H           -7.46682667992983        3.44266379418311        1.99551172896023
H           -6.24303939632695        2.21411724267027        2.28618386001791
H           -7.90017265325308        2.82726288204682       -1.64339000224303
H           -8.39565656602643        3.82801448827394       -0.28044484261439
H           -6.78604683764270        4.02155100838303       -0.97499549509505
N           -7.52046655369477       -0.65296774394528       -0.60563401937314
H           -8.41214842227489        0.39225493851009       -1.77358826742850
C           -8.49532210357382       -1.68319126735030       -0.87703966889458
H           -8.02015684089027       -2.63760371476522       -1.13773429892715
C           -9.43084612720727       -1.90724911540668        0.31596440883256
C           -9.33581162049934       -1.19873746294949       -2.06863034845447
H           -9.88430568432072       -0.96420288955722        0.61530168093301
H          -10.21437424474631       -2.60410410145449        0.03224761272832
H           -8.86950013358286       -2.31359625765920        1.15359316434936
O           -9.11981774725638        0.07254851857343       -2.38338851716566
O          -10.12283186499018       -1.89858166519354       -2.64288414982753
