42
 energy: -62.486132617775 gnorm: 0.000641665905 xtb: 6.7.1 (edcfbbe)
N           -1.41101932031154       -1.24443367613147        1.02482819024446
H           -1.02951383087776       -0.39409593872712        1.42636242755216
H           -0.64381793087094       -1.88701695477222        0.86815304183551
H           -3.21365001888983       -1.27711797393029        1.77864701022763
C           -2.11350034707027       -0.95757069309805       -0.22420455701935
H           -1.59662590380807       -0.23594850268042       -0.87313524747903
C           -2.33747774781490       -2.25920257916593       -0.99720980766493
C           -3.46734513692892       -0.38311197211275        0.15402821707612
H           -2.88591860440268       -2.97083786906610       -0.38229596010824
H           -2.90576594923567       -2.06230171664723       -1.90197647211111
H           -1.38263710154030       -2.70099416292241       -1.27484485027681
O           -3.93181577250688       -0.76941688495273        1.34831552388370
N           -4.06490864011818        0.38344390811392       -0.64791439375010
H           -5.29497997948604       -0.58855719809848       -2.16349545789717
C           -5.39737800176069        0.86657496860122       -0.32334822413126
H           -5.49068043691352        1.09828631992225        0.74283010988542
C           -5.67342689674710        2.11095461254106       -1.17898521379931
C           -6.37832909279350       -0.23231049053672       -0.65409085343420
H           -4.92573309476453        2.86381910666705       -0.92295214363290
H           -5.52008373782333        1.84314481417394       -2.22752882639331
C           -7.07797905640064        2.69694402275537       -1.00545548191531
O           -6.12207281047294       -0.92237293041497       -1.78279449433168
H           -7.81347540320684        1.90779204038392       -1.19404665972772
C           -7.29741825512881        3.23334328991208        0.40657282874017
C           -7.29111549292679        3.81270899625198       -2.02752797834842
H           -6.55802537546530        3.99665950006697        0.64101989217302
H           -8.28653635687193        3.67724179442051        0.48799024925775
H           -7.22456629234598        2.43814391725345        1.14289188600745
H           -7.17842753259407        3.43648637432151       -3.04185805021373
H           -8.28908678751270        4.23224277360770       -1.92818354322772
H           -6.56675335880092        4.61015417494763       -1.87438691919562
N           -7.36507185881650       -0.44589238608284        0.09640900369443
H           -8.52585653796639        0.17988914241284        1.33816362886574
C           -8.33629763930771       -1.47626159282709       -0.19641711437691
H           -8.57886019552251       -1.52146140456097       -1.26599977891636
C           -7.84173789584011       -2.85359118301341        0.25790674154839
C           -9.61322164248400       -1.13251498834023        0.58536931821127
H           -7.53866506796811       -2.81095046330323        1.30211445968334
H           -8.64380136219533       -3.57782852910067        0.14660192662310
H           -6.99069942885114       -3.15869229022434       -0.34613294812942
O           -9.45595519565980       -0.13115196672700        1.44202030775726
O          -10.64596016587927       -1.72622121481676        0.44349524358686
