42
 energy: -62.486133513121 gnorm: 0.000479771361 xtb: 6.7.1 (edcfbbe)
N           -1.65944878861507       -0.02030911141357       -1.26295890750302
H           -1.82562820354732        0.97536962585833       -1.36883201604943
H           -1.36477675833828       -0.38494628262859       -2.16195476529401
H           -1.24327605667117       -0.30017794139965        0.76457131432114
C           -2.86606637626735       -0.70473945535082       -0.79158678934363
H           -3.73891089649149       -0.53767012738044       -1.44263498809454
C           -2.55781370471197       -2.20379633739537       -0.71835472440686
C           -3.10532776378273       -0.07564464219395        0.59929324830548
H           -1.87126232211053       -2.41815805557774        0.09801206385168
H           -3.45938322928672       -2.79472719471237       -0.58927957376022
H           -2.08590348209727       -2.52016860818409       -1.64661246206742
O           -1.99580569901786       -0.10851351624135        1.35318473954259
N           -4.06474875484648        0.60834973815263        1.04352184275019
H           -4.61273646042946       -1.57646443620046        0.62200543952041
C           -5.42649190128931        0.73864468827628        0.62158988072234
H           -5.95227611149089        1.14576474309346        1.49267093123743
C           -5.48163638416609        1.80052507142472       -0.50795669276513
C           -6.15620268858784       -0.53033482209449        0.22303688200652
H           -4.88926972358847        2.64961648229683       -0.15848599269797
H           -4.98391800030512        1.39031223766169       -1.39074546860427
C           -6.87122699646865        2.29440276586922       -0.91575126846470
O           -5.47377126040311       -1.69300131873485        0.19617048640866
H           -7.44403042149357        1.44617733125864       -1.29892781450538
C           -7.62566193371202        2.91470007216732        0.25637514515267
C           -6.72431038178970        3.31907240462042       -2.04090548423126
H           -7.05004722226610        3.73086086509782        0.68780569577909
H           -8.57982113925083        3.30979611788347       -0.08277286783817
H           -7.81927334171930        2.17935647860811        1.03222284429961
H           -6.20602754075852        2.88822550486615       -2.89484486013038
H           -7.70323325638676        3.65503319198033       -2.37241226006302
H           -6.16190838914093        4.18527212205384       -1.69816593050838
N           -7.41046939256475       -0.48269049084942        0.09983656214465
H           -9.01000435200558        0.46664148410275       -0.07105517223639
C           -8.18844497527855       -1.66550145200759       -0.19646565774877
H           -7.71147303276980       -2.29386374173294       -0.95842436979919
C           -8.42765861507612       -2.50949375156528        1.06192666218816
C           -9.55590572614252       -1.20322818338976       -0.71880930651701
H           -8.86645323395711       -1.89398830822748        1.84467307835566
H           -9.10772805807115       -3.32237430449821        0.82362916890886
H           -7.48653067903521       -2.91967895912848        1.41926536871203
O           -9.81199112160245        0.07831502646394       -0.48515254265989
O          -10.32931229919625       -1.94105787495655       -1.26241621149344
