42
 energy: -62.486133500689 gnorm: 0.000481529484 xtb: 6.7.1 (edcfbbe)
N           -1.23356534288530       -0.76158494017030       -0.25411100083769
H           -0.56603261768906       -1.50865550921525       -0.40295670386920
H           -0.97475913692390       -0.28880475385152        0.60791726659023
H           -2.06446424486959        0.66650661536796       -1.20243370193446
C           -2.59202875817291       -1.29153542865568       -0.13641683133106
H           -2.73640333788858       -2.00141350045713       -0.96123707612797
C           -2.89379329210182       -1.98952295679586        1.18650235306958
C           -3.55442214574857       -0.13305989941185       -0.38965152817943
H           -2.71758027473931       -1.30886990202673        2.01691370494850
H           -3.93680032774106       -2.28554108116017        1.20483034643879
H           -2.26303067288758       -2.86794638507166        1.30719244914249
O           -3.01290709398681        0.88455186746747       -1.09075416703782
N           -4.72901401507098       -0.23758217618984        0.03165671999452
H           -6.75805485296497        0.56831875909361       -2.38458831507159
C           -5.81298508615053        0.70480327135865       -0.10615198956405
H           -6.07247116996864        0.97207076516715        0.92629415015104
C           -5.57465317563524        1.98443190954015       -0.91593962069123
C           -6.96235945428485       -0.15107639500648       -0.61796899045815
H           -4.71988596178543        2.50393778345636       -0.48074992232065
H           -5.28615549585737        1.73372561644008       -1.94228233379703
C           -6.78242772337232        2.93362628885274       -0.92100606889821
O           -7.28449786038057       -0.09908440286705       -1.92532625897298
H           -7.69410961122721        2.37121274733516       -1.15478584589594
C           -6.97353161749335        3.59468072451494        0.44237301208235
C           -6.58723538351345        4.00494190604075       -1.99372505918273
H           -6.08050889352988        4.14907507243003        0.72350505476442
H           -7.81028177989957        4.28847724515034        0.40853575314388
H           -7.18085163248101        2.85672642265856        1.21293958209845
H           -6.50114681717024        3.56041733070612       -2.98350435356097
H           -7.42994053477708        4.69198501831704       -2.00308292843703
H           -5.68222805145599        4.57520504242476       -1.79562887950064
N           -7.50721091763481       -0.94999678021817        0.18666358818826
H           -7.77850817189717       -1.52383349917537        1.87686492103674
C           -8.53509318919297       -1.87863787601767       -0.22315493884944
H           -9.29628382460754       -1.39869455244713       -0.85106150806793
C           -7.94824310572679       -3.07416299802148       -0.98261603286095
C           -9.20136127116920       -2.40369004516744        1.05778713418235
H           -7.15486000413447       -3.53078849417389       -0.39440146915381
H           -8.73086996342968       -3.80662382443150       -1.15939217968611
H           -7.53835115870807       -2.74425927537722       -1.93360409379482
O           -8.54053842375282       -2.08281377252696        2.16272957972558
O          -10.20674485332850       -3.05854175614120        1.05276133070028
