42
 energy: -62.486133509727 gnorm: 0.000480389100 xtb: 6.7.1 (edcfbbe)
N           -0.78035015276705       -0.30946901076956       -0.37127735382187
H           -0.00161452718905       -0.84781004537352       -0.73117710279394
H           -0.61285003603984       -0.15437797396827        0.61939735637765
H           -1.80262014893700        1.24213980273898       -0.80255881817628
C           -2.04202825686362       -1.02558521605614       -0.55244148288718
H           -2.05836480852949       -1.39270712061793       -1.58763948192030
C           -2.25396908554890       -2.19904783210389        0.40059210632949
C           -3.16451252920027        0.00542749199230       -0.43543733355962
H           -2.20640193656218       -1.85535779055337        1.43178316536014
H           -3.23442649525406       -2.63145607005916        0.23260027145620
H           -1.49136794879967       -2.95920375356444        0.24353122075306
O           -2.77465642031096        1.26778186380227       -0.68071547222117
N           -4.31339711843269       -0.39995378108585       -0.13535037270794
H           -5.42064621946289       -0.90687810278382       -2.02671533867274
C           -5.52928979010003        0.37025497214825       -0.02398603240567
H           -5.73482570520417        0.48406624069318        1.04495517496429
C           -5.55405395949976        1.74907891973943       -0.71013212858618
C           -6.61855253974890       -0.50129463854416       -0.61508830733980
H           -4.78729089676022        2.37752714910218       -0.25677122844563
H           -5.29120787035195        1.61730097956088       -1.76400485669178
C           -6.90731231214980        2.46400922713879       -0.62056782027258
O           -6.34880510830749       -1.06574182964940       -1.80656403789439
H           -7.68607472915106        1.80516968267147       -1.01851143419914
C           -7.26469001471926        2.82072755898816        0.81977355317125
C           -6.86514460889143        3.73059492128449       -1.47458315723438
H           -6.49996384831618        3.46389878136797        1.25095921727451
H           -8.21410153220443        3.34960088094078        0.84838231216848
H           -7.35909166898857        1.92942916122162        1.43352271533694
H           -6.65023046950735        3.49155099772887       -2.51379522765223
H           -7.82128730083584        4.24650634433479       -1.43416823334651
H           -6.09398690320392        4.40691583241453       -1.11140970041194
N           -7.69860044138573       -0.66807831761649        0.00968903032328
H           -8.90383163934064       -0.00784944037207        1.19316513904359
C           -8.77441399328235       -1.47042633649452       -0.53011049561126
H           -8.87191489771533       -1.35620492429166       -1.61705622413289
C           -8.57503355872399       -2.95420987923358       -0.20337688855290
C          -10.07527172097001       -0.99711648862189        0.13584531754327
H           -8.43431202175748       -3.08198235897703        0.86787289767005
H           -9.45263107970282       -3.51199689335389       -0.51785986798115
H           -7.69836311339613       -3.33258415107159       -0.72307433153972
O           -9.87732762135448       -0.15760111003995        1.14493201968808
O          -11.16137622895511       -1.36707357011540       -0.21369376273453
