42
 energy: -62.486133499668 gnorm: 0.000481609829 xtb: 6.7.1 (edcfbbe)
N           -1.28048474074596       -0.31209403429560       -1.83449205713201
H           -0.56296783345765       -0.90710087297693       -2.22989671552610
H           -0.81560870870472        0.42736107080774       -1.31487772404649
H           -2.87687099760239        0.58056361840031       -2.37809153167733
C           -2.16202512973858       -1.06612521871498       -0.94581211070863
H           -2.42952864511355       -1.99593616661020       -1.46480001507812
C           -1.55121401198582       -1.40399258989421        0.41263195272773
C           -3.45329831452326       -0.26102508308183       -0.80694463196846
H           -1.28711127222956       -0.49046677537638        0.94154833235808
H           -2.26899528785025       -1.95027822068525        1.01475726211576
H           -0.65700924736094       -2.01095551208137        0.28456259319852
O           -3.66642801971124        0.61063358540154       -1.79821033960467
N           -4.19545638501332       -0.48911262560619        0.18234558020070
H           -5.29462382093932       -2.18305167023655        0.77358010926607
C           -5.48919120065517        0.12321021821824        0.43191068030726
H           -5.54171873304203        0.21031831073948        1.52806673007995
C           -5.76699308020140        1.48999776764373       -0.19617609051133
C           -6.50121770015582       -0.93285286604603        0.03135186071519
H           -4.86925479801627        2.10325412279134       -0.09828640614588
H           -5.96263165960462        1.35067561491243       -1.25889638252139
C           -6.94588259815019        2.22332582337706        0.45639382174999
O           -6.19913164563606       -2.18684233049022        0.42081791521714
H           -7.75580481509945        1.50607867491845        0.61683289847204
C           -6.54977398784325        2.82786677669374        1.80242168860324
C           -7.44596133505294        3.32621839881845       -0.47491917150569
H           -5.75772997405478        3.56228083585258        1.66868746531284
H           -7.40237931143333        3.32576717403083        2.25849380504712
H           -6.19681611438866        2.06636938888249        2.49376948527465
H           -7.78965509661680        2.91299220144379       -1.41984614124770
H           -8.27276177371641        3.86473007796529       -0.01767941573118
H           -6.64757860590669        4.03639865499931       -0.68053633274678
N           -7.51816936707387       -0.62981283300076       -0.64237052394614
H           -8.36854878948787        0.55549277865607       -1.70115626226609
C           -8.48669095490526       -1.61379794648421       -1.06614333708601
H           -8.00649106009201       -2.52765417392868       -1.43903320812442
C           -9.44641769650765       -1.98849534509101        0.06822511049205
C           -9.30066389934124       -0.97770239574875       -2.20405440218412
H           -9.90248627286351       -1.09085504503790        0.48131206943173
H          -10.22631518426685       -2.63666602023365       -0.32126770199703
H           -8.90399983891911       -2.50616997963950        0.85546093929075
O           -9.06618589671261        0.31911865517844       -2.35896144865909
O          -10.08411745984949       -1.59369185481615       -2.87178327818807
