42
 energy: -62.486133510477 gnorm: 0.000480017340 xtb: 6.7.1 (edcfbbe)
N           -2.56259122339439       -0.29016474964191       -0.55500850714692
H           -2.54811451587841        0.64267282359344       -0.95629216672993
H           -2.16180163719487       -0.93107902229400       -1.22981458620271
H           -2.60306515755780       -0.10124785390041        1.55693703784388
C           -3.92286566545306       -0.69571014635743       -0.19664345326976
H           -4.64193386241519       -0.63137498243428       -1.02764361256766
C           -3.87141040337871       -2.14044681752737        0.30377980469917
C           -4.33813054086848        0.24768225265657        0.93646120119728
H           -3.20224360490048       -2.22797015614590        1.15696669537309
H           -4.86261639751463       -2.46663745223403        0.59815289307968
H           -3.50437314252368       -2.79057591420874       -0.48784636457361
O           -3.41135818547315        0.31971154154523        1.89909317033616
N           -5.34628483730922        0.99384739486227        1.06261729270441
H           -8.54430663662845        0.93648056988876       -1.00257488186187
C           -6.44488206694992        1.11395200210958        0.15234806878278
H           -7.13714777204655        1.80842991291912        0.66079620594587
C           -6.05450823528387        1.75650407178632       -1.20539290302412
C           -7.26251068059454       -0.14325706504498       -0.04932867541197
H           -4.99086630191275        1.58746487278663       -1.38146002047605
H           -6.60212472145148        1.27516077197831       -2.02255488180673
C           -6.31377964196767        3.26896876999908       -1.23890571883260
O           -8.40337253240441        0.01182167161519       -0.76253663689749
H           -7.35863026247912        3.45457332722768       -0.95531938869634
C           -5.40279763299736        3.99117395058851       -0.24740480353991
C           -6.10245220555297        3.81125310628834       -2.65134950801696
H           -4.36288975411553        3.91050381403031       -0.56316274467820
H           -5.66345175210408        5.04691224100028       -0.19330653184120
H           -5.48615000535054        3.55496015862505        0.74517083433753
H           -6.76555575721009        3.32213996566654       -3.36271296466768
H           -6.30590223910641        4.87949222906999       -2.67572458246239
H           -5.07411176186944        3.65304211907560       -2.97142020965010
N           -6.91993645378256       -1.24341707133146        0.45232908032282
H           -6.42400565121028       -1.90847718710157        2.14669183089978
C           -7.74900873954729       -2.41994719251553        0.30985154625443
H           -8.81797466730887       -2.16277797971040        0.33610225108234
C           -7.46123051682897       -3.15953478477915       -0.99921435212540
C           -7.47410230236075       -3.34050355127396        1.50907131173203
H           -6.39737041068294       -3.36701509573742       -1.08604486162693
H           -8.00628755432763       -4.09857677048993       -1.00284610110358
H           -7.77649457646469       -2.55215529876080       -1.84487588347651
O           -6.69641755319306       -2.80272671188717        2.44451407211271
O           -7.93113234521070       -4.44512718284081        1.59747181240499
