42
 energy: -62.486133512890 gnorm: 0.000479339109 xtb: 6.7.1 (edcfbbe)
N           -2.49090386574898       -1.89088265439347        1.71563891260561
H           -2.54940650208603       -1.44212895311161        2.62392265509672
H           -1.58506739378437       -2.33865216062486        1.64419974327656
H           -4.31085884915311       -2.31544562844312        1.37196773839590
C           -2.67984730750636       -0.91807454952158        0.64214816170133
H           -2.16545559924017        0.03785879377034        0.80992186970013
C           -2.20559474933899       -1.51521190085730       -0.68312274261507
C           -4.17978741640554       -0.64609115005331        0.53949030559258
H           -2.71444235257113       -2.45825685041237       -0.87151564721534
H           -2.42598347115432       -0.82553914842957       -1.49215805920203
H           -1.13283689454723       -1.69571659747911       -0.65648877775872
O           -4.93467133345374       -1.66488363237578        0.97979147789971
N           -4.52601564297022        0.45769072943508        0.06074134908229
H           -7.16991055222742        0.83500747226092       -2.28421242018123
C           -5.83160276146238        1.01659492782490       -0.19599207067312
H           -6.14755974155244        1.48424876979749        0.74876630839568
C           -5.62124048329166        2.12745278003652       -1.23681705402852
C           -6.93721762737229        0.03136030876524       -0.54776486843852
H           -4.69211019269029        2.63023427024335       -0.96499201698689
H           -5.44426737988722        1.67897331472954       -2.22019196506411
C           -6.75508638782563        3.16319142159010       -1.29968476280899
O           -7.52084456010984        0.09977637436623       -1.76684917662021
H           -7.72571975446450        2.66016918480720       -1.21267233702907
C           -6.64297207144772        4.15933680702180       -0.14747143878687
C           -6.71234574236891        3.90731044410724       -2.63434280657295
H           -5.71046732778927        4.71508410752220       -0.21768112049194
H           -7.46787636512689        4.86738152760348       -0.17769073286791
H           -6.66841727359438        3.65124315587526        0.81314759692481
H           -6.85748030846173        3.22841585809548       -3.47310138850657
H           -7.49319843606824        4.66294093781197       -2.67334151063333
H           -5.75147530184398        4.40212420600796       -2.75805522296438
N           -7.25357629629956       -0.83944145350474        0.29956543357419
H           -6.82264046549146       -1.80473830043303        1.83849765652794
C           -8.25987520349018       -1.84490867714675        0.07004983638682
H           -9.20468116482058       -1.40533376081878       -0.27282262433458
C           -7.80453997281389       -2.90207995041624       -0.94424929713784
C           -8.48436075850492       -2.55593620552202        1.41198400475772
H           -6.84637787103024       -3.31612817348646       -0.63640637338390
H           -8.54198976929659       -3.69863891627759       -0.99070177646072
H           -7.69743504819507       -2.45121066366027       -1.92738510670272
O           -7.48015587859724       -2.40476134800019        2.26402599807238
O           -9.45989510357992       -3.21436084152343        1.65078765984575
