42
 energy: -62.486133052711 gnorm: 0.000566406719 xtb: 6.7.1 (edcfbbe)
N           -1.57442150886538       -1.94345740894383        0.29286409917641
H           -0.62719087321913       -2.16356418930498        0.01010324000795
H           -2.11448575468385       -2.80350518120781        0.24292634625030
H           -2.59385078610939       -1.04678674079707        1.66625737026681
C           -2.16347201834765       -0.94635440651535       -0.60233806065200
H           -1.43624546434697       -0.12992661563873       -0.70206850576818
C           -2.53260599485624       -1.46892817338649       -1.98829210413200
C           -3.38189985500507       -0.37129016109236        0.10058979804061
H           -3.23917690867839       -2.29066689108647       -1.89955129191578
H           -3.01103038072684       -0.67652263434951       -2.55181902353588
H           -1.64585979282666       -1.81312352612059       -2.51714825829099
O           -3.39517468862749       -0.53300315331126        1.44212905020750
N           -4.27023911381468        0.21217252870301       -0.56654013756124
H           -7.08726903422370        0.46655769154474        1.82448940306057
C           -5.42059750175042        0.78467684192574        0.08863726168815
H           -5.19140576225677        1.05228095714635        1.13319738952604
C           -5.82968495401874        2.03001610387997       -0.71767308003753
C           -6.55162037974792       -0.21520341929128        0.07591257359178
H           -4.96622424820735        2.69641878739979       -0.76075869151860
H           -6.03503034644094        1.68262239151519       -1.73056172056646
C           -7.04078869545607        2.79390378496977       -0.17337279683822
O           -7.40269538944988       -0.16767718408591        1.16913671877389
H           -7.86933727967725        2.09468447192000       -0.01537913099667
C           -6.72280015317437        3.50012980247875        1.14461799005817
C           -7.49688474779516        3.82172606710173       -1.20762164835392
H           -5.93287925326608        4.23300335032454        0.99405627513359
H           -7.60325567390899        4.01922165181132        1.51703767820116
H           -6.39245567843880        2.80503264909016        1.91417616574555
H           -7.77491733559489        3.33003022148980       -2.13611596981982
H           -8.35895632089850        4.37404082408298       -0.84095856980666
H           -6.69791974334302        4.52949274618317       -1.41736562274110
N           -6.68420865070889       -0.99869459204772       -0.88598517771341
H           -8.93426394076993       -0.38846879255251        0.22525417003870
C           -7.69590780043083       -2.00669693931635       -1.06181521839791
H           -7.38239659531033       -2.58004358108346       -1.94198924870491
C           -7.86016401388120       -2.96232854278283        0.12853164262370
C           -9.06878618956456       -1.40446831516448       -1.39996700183009
H           -8.23281305107027       -2.44399579085899        1.00934834962325
H           -8.55656370567564       -3.75404651289856       -0.13643528966096
H           -6.89651348405323       -3.40492333160101        0.37090846897285
O           -9.54750934963138       -0.52348880233796       -0.52169499712145
O           -9.68668883727892       -1.72087218146722       -2.37578739444867
