42
 energy: -62.486133517409 gnorm: 0.000479474434 xtb: 6.7.1 (edcfbbe)
N           -1.27397939931488       -1.48897062444992       -0.67547503687829
H           -1.09893352818840       -2.29991101650515       -1.25575810612364
H           -0.88149637192731       -1.67808075650470        0.24252852073916
H           -1.01745278118111        0.32152814827028       -0.55592642380412
C           -2.70744389753237       -1.21248100474678       -0.55966007177621
H           -3.15938543078857       -1.44947033171055       -1.52812828307663
C           -3.37950888512823       -2.04114855125768        0.53939701917961
C           -2.86684268612797        0.30353341875455       -0.24752766858724
H           -2.93659459618072       -1.80248465660355        1.50558850077711
H           -4.44407038660193       -1.83472017609994        0.59785987358940
H           -3.24602064251254       -3.10412563907244        0.34285162327046
O           -1.70535988532044        0.96917812318687       -0.28841514999946
N           -3.85674731232758        0.92398095580472        0.20171273000607
H           -4.78047674088644       -0.25963488706813       -1.88731525520127
C           -5.27216179776161        0.92460186989644        0.14311650022576
H           -5.61645976856350        1.06259652145449        1.17348342978592
C           -5.68353332205649        2.17406130864447       -0.67686832380367
C           -6.00554697644441       -0.26999083667097       -0.42771622361293
H           -5.07250768500409        2.99877561541875       -0.30899531587839
H           -5.41333390630379        2.00825561545737       -1.72406178669109
C           -7.16557502287680        2.55039714681602       -0.59322089280482
O           -5.50766159413362       -0.80912420692292       -1.56878014909828
H           -7.77103424674812        1.68669448520185       -0.88589829009561
C           -7.56704712664255        2.97014669562565        0.81806241934323
C           -7.45008059673631        3.68819824282574       -1.57324476966229
H           -6.96628360213368        3.81567574126451        1.14585507380827
H           -8.61362083125815        3.26337344950784        0.83514211025465
H           -7.43584598900999        2.15665585180866        1.52609928071662
H           -7.20068550185384        3.39692412585390       -2.59117370121826
H           -8.50334051942299        3.95534304593460       -1.54451135985317
H           -6.86467719676573        4.56762623693450       -1.31389055470077
N           -7.15022257058834       -0.55494982547722        0.01536910189784
H           -8.66102326125660        0.00900545572781        0.91058053207587
C           -7.98095498901556       -1.55732207753877       -0.60968833230890
H           -7.87594927100067       -1.55773060886323       -1.70291197348747
C           -7.65599348032567       -2.95847883791996       -0.08075338405393
C           -9.43926814196609       -1.23212350032051       -0.25334533782918
H           -7.70012278814094       -2.96440781724834        1.00665758448316
H           -8.38201120527481       -3.66592380790060       -0.47128494210503
H           -6.65834056941884       -3.25370463318735       -0.39763738138165
O           -9.56691085529892       -0.29768353015957        0.68113121661449
O          -10.37168594523127       -1.78610991655369       -0.76431037046776
