42
 energy: -62.486133529509 gnorm: 0.000477414141 xtb: 6.7.1 (edcfbbe)
N           -1.99385651757259       -1.05760395225237       -2.29194048773791
H           -1.26894884277667       -1.70395625279689       -2.57825457809436
H           -1.63313491622644       -0.11572243780575       -2.41763230345881
H           -3.86970863625614       -0.71117657161930       -2.56499506004003
C           -2.36558426727053       -1.26724240407109       -0.89485053640855
H           -2.49890285088548       -2.34791135782869       -0.75187201214288
C           -1.35168175554700       -0.74683688647510        0.12275522548059
C           -3.73560362811443       -0.63117119144128       -0.69304231733602
H           -1.18428867525498        0.31827823590138       -0.02735163552867
H           -1.73874648052214       -0.89363972957594        1.12526748615197
H           -0.40469716932705       -1.27315787245167        0.01984605082630
O           -4.43622856223336       -0.43404299472589       -1.81573988863028
N           -4.12328305354962       -0.37586698988975        0.47839358433787
H           -5.59286781509938       -2.04358157673608        1.54306994307985
C           -5.43934324453542        0.19173490678981        0.74340478433212
H           -5.48182557209846        0.30379574032874        1.83633964446427
C           -5.65776502246880        1.55370102570131        0.07946922015611
C           -6.46282675833104       -0.84158353174014        0.33369234651049
H           -4.77492735878936        2.16707144601947        0.27513245858798
H           -5.73209246618085        1.39576872004097       -0.99590245709297
C           -6.90937596488317        2.28385674767835        0.57935771802972
O           -6.36778402450177       -2.03416513623981        0.96594154117239
H           -7.73302703904204        1.56545889903323        0.62371133632694
C           -6.69525335228577        2.87684959271900        1.97064570572139
C           -7.28518448588398        3.39159891768378       -0.40335994194611
H           -5.88390014684539        3.60197790358563        1.95269495094935
H           -7.59716178660392        3.38255570810096        2.30796220111275
H           -6.45041557567468        2.10685911987044        2.69794815454634
H           -7.51017959618771        2.97943390303046       -1.38394347027865
H           -8.16116733573902        3.93104410105062       -0.05074200573493
H           -6.46616706933124        4.10069346272750       -0.50642188095037
N           -7.29311628597928       -0.60568910254770       -0.57837432774636
H           -7.70966780577496        0.39048779886301       -2.00490681002608
C           -8.23474005747120       -1.58892732776945       -1.05461244279371
H           -7.78259435133741       -2.58530503338275       -1.14167725615842
C           -9.46312658503772       -1.68006821274391       -0.14332697363092
C           -8.69193882226261       -1.12562809988235       -2.44784159783117
H           -9.90283570875866       -0.69317476062436       -0.01270205880370
H          -10.19778180817135       -2.33933269293931       -0.59688890799711
H           -9.17507051090158       -2.07240820534664        0.82894310739958
O           -8.27445818423300        0.09371529225282       -2.76016117587372
O           -9.37493114695594       -1.79871480255982       -3.16910007181895
