42
 energy: -62.486133504559 gnorm: 0.000480196421 xtb: 6.7.1 (edcfbbe)
N           -0.89760244490938       -0.49084838891046       -0.01301425692714
H           -0.06006454989251       -0.76078110243953       -0.51427676729430
H           -0.91508863099250       -1.01724621528384        0.85630347001924
H           -1.85992234137305        1.11057639845137        0.49655105760344
C           -2.09607382569895       -0.79007050188586       -0.79722432212539
H           -1.91893987140479       -0.42233466564535       -1.81610922828561
C           -2.47421191013249       -2.26777765493156       -0.85639666229195
C           -3.22950037544375        0.05031736087483       -0.22967299254836
H           -2.60309325512543       -2.66252265842996        0.14968988949444
H           -3.41420442759784       -2.37142604289125       -1.38740925774866
H           -1.70165847052850       -2.84054731584601       -1.36537200186395
O           -2.83616794764432        1.14543369159907        0.45237871495927
N           -4.42136578991691       -0.29264205015093       -0.42766838469391
H           -6.31209985378622       -0.43917832109633        2.11381548114077
C           -5.51422431928332        0.53198064422340        0.04260394385712
H           -5.26351176376337        0.99948236984756        1.00851635750559
C           -5.81006374547465        1.62694115045972       -0.99237737622768
C           -6.70332728097960       -0.38479836020846        0.20518415893435
H           -4.90783521104637        2.23078350030956       -1.10909384160026
H           -6.01849925575799        1.11899645609778       -1.93383278007535
C           -6.99165035601885        2.53220544885856       -0.63302889455800
O           -6.98287868872992       -0.77254606807172        1.50561473070946
H           -7.87450755656422        1.90566919555811       -0.46957066847174
C           -6.72510760079465        3.35270668241710        0.62769201201920
C           -7.27998817510498        3.46464812483396       -1.80814011426774
H           -5.79758409522716        3.91299053935940        0.52692340106861
H           -7.53617304158508        4.05811475354726        0.79305526507262
H           -6.65179890887846        2.72050453653574        1.50943123968577
H           -7.49545418104690        2.89005359139595       -2.70513411968759
H           -8.13829676654426        4.09610987041648       -1.59171926291047
H           -6.42223432055405        4.10495946936690       -2.00429479827178
N           -7.33986727627091       -0.76610154392732       -0.79758599974314
H           -8.78920305231531       -0.69037975575241        1.33810322755424
C           -8.45222544884083       -1.67758170418239       -0.83858245398240
H           -8.62723594496169       -1.87240008192898       -1.90302221931150
C           -8.21142347300109       -3.01125695840239       -0.11772158616074
C           -9.74424515939762       -1.05154710798262       -0.29126670251937
H           -8.09202172875166       -2.86981968568794        0.95417214435233
H           -9.05364622333742       -3.67552300744119       -0.29523789533449
H           -7.30697075889938       -3.47107921867716       -0.50909378659302
O           -9.67637789695444       -0.57134979278105        0.95078519669272
O          -10.75984533209027       -1.01474135533654       -0.92503884691823
